# created with PyMOL 2.4.0
@<TRIPOS>MOLECULE
temp
50 52 1                 
SMALL
USER_CHARGES
@<TRIPOS>ATOM
1	   N	32.376	16.649	24.569	N.4	1	SAM1	0.000	
2	  CA	32.291	15.328	23.953	C.3	1	SAM1	0.000	
3	   C	33.668	14.828	23.539	C.2	1	SAM1	0.000	
4	   O	33.957	14.069	24.266	O.co2	1	SAM1	0.000	
5	  CB	31.382	15.348	22.721	C.3	1	SAM1	0.000	
6	  CG	30.678	14.015	22.511	C.3	1	SAM1	0.000	
7	  SD	29.421	14.077	21.206	S.3	1	SAM1	0.000	
8	  CE	30.367	14.766	19.835	C.3	1	SAM1	0.000	
9	 C5'	28.393	15.497	21.637	C.3	1	SAM1	0.000	
10	 C4'	27.640	15.322	22.965	C.3	1	SAM1	0.000	
11	 O4'	26.783	16.434	23.118	O.3	1	SAM1	0.000	
12	 C3'	26.768	14.076	23.040	C.3	1	SAM1	0.000	
13	 O3'	27.073	13.348	24.203	O.3	1	SAM1	0.000	
14	 C2'	25.351	14.590	23.220	C.3	1	SAM1	0.000	
15	 O2'	24.558	13.764	24.058	O.3	1	SAM1	0.000	
16	 C1'	25.600	15.992	23.766	C.3	1	SAM1	0.000	
17	 OXT	34.615	15.610	23.448	O.co2	1	SAM1	0.000	
18	  N1	22.527	19.710	25.615	N.2	1	SAM1	0.000	
19	  C2	23.579	19.081	26.255	C.2	1	SAM1	0.000	
20	  N3	24.289	18.111	25.578	N.2	1	SAM1	0.000	
21	  C4	23.939	17.783	24.312	C.2	1	SAM1	0.000	
22	  C5	22.886	18.403	23.660	C.2	1	SAM1	0.000	
23	  C6	22.163	19.376	24.334	C.2	1	SAM1	0.000	
24	  N6	21.138	19.988	23.737	N.pl3	1	SAM1	0.000	
25	  N7	22.786	17.871	22.422	N.2	1	SAM1	0.000	
26	  C8	23.749	16.928	22.274	C.2	1	SAM1	0.000	
27	  N9	24.464	16.872	23.444	N.2	1	SAM1	0.000	
28	  HA	31.870	14.655	24.700	 H	1	SAM1	0.000	
29	 HB1	31.986	15.569	21.841	 H	1	SAM1	0.000	
30	 HB2	30.630	16.126	22.851	 H	1	SAM1	0.000	
31	 HG1	30.196	13.726	23.445	 H	1	SAM1	0.000	
32	 HG2	31.423	13.267	22.240	 H	1	SAM1	0.000	
33	 HE1	31.054	14.011	19.452	 H	1	SAM1	0.000	
34	 HE2	30.933	15.630	20.182	 H	1	SAM1	0.000	
35	 HE3	29.686	15.073	19.042	 H	1	SAM1	0.000	
36	  H1	32.763	17.305	23.906	 H	1	SAM1	0.000	
37	  H2	32.971	16.603	25.384	 H	1	SAM1	0.000	
38	  H2	23.841	19.345	27.269	 H	1	SAM1	0.000	
39	  H3	31.453	16.953	24.843	 H	1	SAM1	0.000	
40	  H8	23.922	16.328	21.393	 H	1	SAM1	0.000	
41	 H1'	25.706	16.003	24.851	 H	1	SAM1	0.000	
42	 H2'	24.758	14.592	22.305	 H	1	SAM1	0.000	
43	 H2'	25.003	13.698	24.906	 H	1	SAM1	0.000	
44	 H3'	26.909	13.449	22.160	 H	1	SAM1	0.000	
45	 H3'	26.481	12.593	24.236	 H	1	SAM1	0.000	
46	 H4'	28.399	15.231	23.742	 H	1	SAM1	0.000	
47	 H61	20.886	19.743	22.790	 H	1	SAM1	0.000	
48	 H62	20.615	20.696	24.232	 H	1	SAM1	0.000	
49	H5'1	27.662	15.649	20.843	 H	1	SAM1	0.000	
50	H5'2	29.033	16.376	21.715	 H	1	SAM1	0.000	
@<TRIPOS>BOND
1 1 2 1
2 1 36 1
3 1 37 1
4 1 39 1
5 2 3 1
6 2 5 1
7 2 28 1
8 3 4 1
9 3 17 2
10 5 6 1
11 5 29 1
12 5 30 1
13 6 7 1
14 6 31 1
15 6 32 1
16 7 8 1
17 7 9 1
18 8 33 1
19 8 34 1
20 8 35 1
21 9 10 1
22 9 49 1
23 9 50 1
24 10 11 1
25 10 12 1
26 10 46 1
27 11 16 1
28 12 13 1
29 12 14 1
30 12 44 1
31 13 45 1
32 14 15 1
33 14 16 1
34 14 42 1
35 15 43 1
36 16 27 1
37 16 41 1
38 18 19 ar
39 18 23 ar
40 19 20 ar
41 19 38 1
42 20 21 ar
43 21 22 ar
44 21 27 ar
45 22 23 ar
46 22 25 ar
47 23 24 1
48 24 47 1
49 24 48 1
50 25 26 ar
51 26 27 ar
52 26 40 1
@<TRIPOS>SUBSTRUCTURE
1	SAM1	1	GROUP	1 A	SAM
