@<TRIPOS>MOLECULE
3MTE.A
51 53 1 0 0 
SMALL
USER_CHARGES


@<TRIPOS>ATOM
  1 N       32.3760    16.6490    24.5690 N.4   1 SAM  -0.8530 
  2 H3      31.4526    16.9528    24.8430 H     1 SAM   0.4500 
  3 H1      32.7634    17.3052    23.9062 H     1 SAM   0.4500 
  4 H2      32.9708    16.6028    25.3839 H     1 SAM   0.4500 
  5 CA      32.2910    15.3280    23.9530 C.3   1 SAM   0.3170 
  6 HA      31.8698    14.6553    24.7001 H     1 SAM   0.0800 
  7 C       33.6680    14.8280    23.5390 C.2   1 SAM   0.9060 
  8 CB      31.3820    15.3480    22.7210 C.3   1 SAM  -0.1600 
  9 HB1     31.9862    15.5694    21.8412 H     1 SAM   0.0800 
 10 HB2     30.6302    16.1265    22.8508 H     1 SAM   0.0800 
 11 CG      30.6780    14.0150    22.5110 C.3   1 SAM  -0.1525 
 12 HG1     30.1956    13.7258    23.4447 H     1 SAM   0.0800 
 13 HG2     31.4234    13.2672    22.2403 H     1 SAM   0.0800 
 14 SD      29.4210    14.0770    21.2060 S.3   1 SAM   0.9775 
 15 CE      30.3670    14.7660    19.8350 C.3   1 SAM  -0.2325 
 16 HE1     31.0540    14.0113    19.4521 H     1 SAM   0.0800 
 17 HE2     30.9333    15.6301    20.1823 H     1 SAM   0.0800 
 18 HE3     29.6857    15.0732    19.0415 H     1 SAM   0.0800 
 19 C5'     28.3930    15.4970    21.6370 C.3   1 SAM  -0.1525 
 20 H5'1    27.6624    15.6490    20.8425 H     1 SAM   0.0800 
 21 H5'2    29.0327    16.3761    21.7153 H     1 SAM   0.0800 
 22 C4'     27.6400    15.3220    22.9650 C.3   1 SAM   0.2000 
 23 H4'     28.3985    15.2307    23.7424 H     1 SAM   0.0800 
 24 O4'     26.7830    16.4340    23.1180 O.3   1 SAM  -0.5600 
 25 C3'     26.7680    14.0760    23.0400 C.3   1 SAM   0.2000 
 26 H3'     26.9091    13.4488    22.1598 H     1 SAM   0.0800 
 27 O3'     27.0730    13.3480    24.2030 O.3   1 SAM  -0.6800 
 28 H3'     26.4809    12.5931    24.2365 H     1 SAM   0.4000 
 29 C2'     25.3510    14.5900    23.2200 C.3   1 SAM   0.2000 
 30 H2'     24.7583    14.5915    22.3052 H     1 SAM   0.0800 
 31 O2'     24.5580    13.7640    24.0580 O.3   1 SAM  -0.6800 
 32 H2'     25.0032    13.6982    24.9060 H     1 SAM   0.4000 
 33 C1'     25.6000    15.9920    23.7660 C.3   1 SAM   0.5691 
 34 H1'     25.7063    16.0029    24.8507 H     1 SAM   0.0800 
 35 OXT     34.6150    15.6100    23.4480 O.co2 1 SAM  -0.9000 
 36 N1      22.5270    19.7100    25.6150 N.2   1 SAM  -0.6610 
 37 C2      23.5790    19.0810    26.2550 C.2   1 SAM   0.6010 
 38 H2      23.8408    19.3449    27.2690 H     1 SAM   0.0600 
 39 N3      24.2890    18.1110    25.5780 N.2   1 SAM  -0.6610 
 40 C4      23.9390    17.7830    24.3120 C.2   1 SAM   0.5000 
 41 C5      22.8860    18.4030    23.6600 C.2   1 SAM   0.4500 
 42 C6      22.1630    19.3760    24.3340 C.2   1 SAM   0.6110 
 43 N6      21.1380    19.9880    23.7370 N.2   1 SAM  -0.2000 
 44 H61     20.8857    19.7432    22.7901 H     1 SAM   0.4000 
 45 H62     20.6147    20.6959    24.2321 H     1 SAM   0.4000 
 46 N7      22.7860    17.8710    22.4220 N.2   1 SAM  -0.6960 
 47 C8      23.7490    16.9280    22.2740 C.3   1 SAM   0.4551 
 48 H81     24.4083    17.1975    21.4489 H     1 SAM   0.0800 
 49 H82     23.2917    15.9594    22.0721 H     1 SAM   0.0800 
 50 N9      24.4640    16.8720    23.4440 N.pl3 1 SAM  -0.7882 
 51 O       33.9570    14.0690    24.2660 O.co2 1 SAM  -0.9000 
@<TRIPOS>BOND
  1   1   2  1   
  2   1   3  1   
  3   1   4  1   
  4   1   5  1   
  5   5   6  1   
  6   5   7  1   
  7   5   8  1   
  8   7  35  ar  
  9   7  51  ar  
 10   8   9  1   
 11   8  10  1   
 12   8  11  1   
 13  11  12  1   
 14  11  13  1   
 15  11  14  1   
 16  14  15  1   
 17  14  19  1   
 18  15  16  1   
 19  15  17  1   
 20  15  18  1   
 21  19  20  1   
 22  19  21  1   
 23  19  22  1   
 24  22  23  1   
 25  22  24  1   
 26  22  25  1   
 27  24  33  1   
 28  25  26  1   
 29  25  27  1   
 30  25  29  1   
 31  27  28  1   
 32  29  30  1   
 33  29  31  1   
 34  29  33  1   
 35  31  32  1   
 36  33  34  1   
 37  33  50  1   
 38  36  37  2   
 39  36  42  1   
 40  37  38  1   
 41  37  39  1   
 42  39  40  2   
 43  40  41  1   
 44  40  50  1   
 45  41  42  1   
 46  41  46  2   
 47  42  43  2   
 48  43  44  1   
 49  43  45  1   
 50  46  47  1   
 51  47  48  1   
 52  47  49  1   
 53  47  50  1   
@<TRIPOS>SUBSTRUCTURE
  1 SAM  24 GROUP 4 A **** 0

# MOE 2022.02 (io_trps.svl 2020.11)
