# created with PyMOL 2.5.2
@<TRIPOS>MOLECULE
3MTE
27 29 1                 
SMALL
USER_CHARGES
@<TRIPOS>ATOM
1	   N	32.376	16.649	24.569	N.3	1	SAM220	0.000	
2	  CA	32.291	15.328	23.953	C.3	1	SAM220	0.000	
3	   C	33.668	14.828	23.539	C.3	1	SAM220	0.000	
4	  CB	31.382	15.348	22.721	C.3	1	SAM220	0.000	
5	  CG	30.678	14.015	22.511	C.3	1	SAM220	0.000	
6	  SD	29.421	14.077	21.206	S.3	1	SAM220	0.000	
7	  CE	30.367	14.766	19.835	C.3	1	SAM220	0.000	
8	 C5'	28.393	15.497	21.637	C.3	1	SAM220	0.000	
9	 C4'	27.640	15.322	22.965	C.3	1	SAM220	0.000	
10	 O4'	26.783	16.434	23.118	O.3	1	SAM220	0.000	
11	 C3'	26.768	14.076	23.040	C.3	1	SAM220	0.000	
12	 O3'	27.073	13.348	24.203	O.3	1	SAM220	0.000	
13	 C2'	25.351	14.590	23.220	C.3	1	SAM220	0.000	
14	 O2'	24.558	13.764	24.058	O.3	1	SAM220	0.000	
15	 C1'	25.600	15.992	23.766	C.3	1	SAM220	0.000	
16	 OXT	34.615	15.610	23.448	O.co2	1	SAM220	0.000	
17	  N1	22.527	19.710	25.615	N.2	1	SAM220	0.000	
18	  C2	23.579	19.081	26.255	C.2	1	SAM220	0.000	
19	  N3	24.289	18.111	25.578	N.2	1	SAM220	0.000	
20	  C4	23.939	17.783	24.312	C.2	1	SAM220	0.000	
21	  C5	22.886	18.403	23.660	C.2	1	SAM220	0.000	
22	  C6	22.163	19.376	24.334	C.2	1	SAM220	0.000	
23	  N6	21.138	19.988	23.737	N.pl3	1	SAM220	0.000	
24	  N7	22.786	17.871	22.422	N.2	1	SAM220	0.000	
25	  C8	23.749	16.928	22.274	C.2	1	SAM220	0.000	
26	  N9	24.464	16.872	23.444	N.2	1	SAM220	0.000	
27	   O	33.957	14.069	24.266	O.co2	1	SAM220	0.000	
@<TRIPOS>BOND
1 1 2 1
2 2 3 1
3 2 4 1
4 3 16 ar 
5 3 27 ar 
6 4 5 1
7 5 6 1
8 6 7 1
9 6 8 1
10 8 9 1
11 9 10 1
12 9 11 1
13 10 15 1
14 11 12 1
15 11 13 1
16 13 14 1
17 13 15 1
18 15 26 1
19 17 18 ar
20 17 22 ar
21 18 19 ar
22 19 20 ar
23 20 21 ar
24 20 26 ar
25 21 22 ar
26 21 24 ar
27 22 23 1
28 24 25 ar
29 25 26 ar
@<TRIPOS>SUBSTRUCTURE
1	SAM220	1	GROUP	1 A	SAM
