# created with PyMOL 2.5.0
@<TRIPOS>MOLECULE
7O4N
27 29 1                 
SMALL
USER_CHARGES
@<TRIPOS>ATOM
1	   N	2.251	-11.077	9.842	N.3	1	SAM301	0.000	
2	  CA	2.926	-9.867	10.447	C.3	1	SAM301	0.000	
3	   C	2.313	-8.618	9.821	C.2	1	SAM301	0.000	
4	   O	1.458	-8.701	8.996	O.co2	1	SAM301	0.000	
5	  CB	4.445	-9.879	10.232	C.3	1	SAM301	0.000	
6	  CG	4.876	-9.862	8.791	C.3	1	SAM301	0.000	
7	  SD	6.689	-9.801	8.679	S.3	1	SAM301	0.000	
8	  CE	6.932	-8.711	7.297	C.3	1	SAM301	0.000	
9	 C5'	7.001	-11.386	7.982	C.3	1	SAM301	0.000	
10	 C4'	7.085	-12.407	9.093	C.3	1	SAM301	0.000	
11	 O4'	6.808	-13.685	8.495	O.3	1	SAM301	0.000	
12	 C3'	8.438	-12.548	9.803	C.3	1	SAM301	0.000	
13	 O3'	8.258	-12.874	11.182	O.3	1	SAM301	0.000	
14	 C2'	9.074	-13.712	9.032	C.3	1	SAM301	0.000	
15	 O2'	10.060	-14.433	9.735	O.3	1	SAM301	0.000	
16	 C1'	7.846	-14.582	8.813	C.3	1	SAM301	0.000	
17	 OXT	2.664	-7.531	10.210	O.co2	1	SAM301	0.000	
18	  N1	6.607	-19.240	7.131	N.2	1	SAM301	0.000	
19	  C2	6.263	-18.547	8.228	C.2	1	SAM301	0.000	
20	  N3	6.610	-17.305	8.604	N.2	1	SAM301	0.000	
21	  C4	7.399	-16.749	7.672	C.2	1	SAM301	0.000	
22	  C5	7.806	-17.310	6.475	C.2	1	SAM301	0.000	
23	  C6	7.382	-18.625	6.201	C.2	1	SAM301	0.000	
24	  N6	7.755	-19.310	5.121	N.pl3	1	SAM301	0.000	
25	  N7	8.641	-16.432	5.793	N.2	1	SAM301	0.000	
26	  C8	8.647	-15.349	6.526	C.2	1	SAM301	0.000	
27	  N9	7.973	-15.507	7.710	N.2	1	SAM301	0.000	
@<TRIPOS>BOND
1 1 2 1
2 2 3 1
3 2 5 1
4 3 4 ar
5 3 17 ar
6 5 6 1
7 6 7 1
8 7 8 1
9 7 9 1
10 9 10 1
11 10 11 1
12 10 12 1
13 11 16 1
14 12 13 1
15 12 14 1
16 14 15 1
17 14 16 1
18 16 27 1
19 18 19 ar
20 18 23 ar
21 19 20 ar
22 20 21 ar
23 21 22 ar
24 21 27 ar
25 22 23 ar
26 22 25 ar
27 23 24 1
28 25 26 ar
29 26 27 ar
@<TRIPOS>SUBSTRUCTURE
1	SAM301	1	GROUP	1 A	SAM
