@<TRIPOS>MOLECULE
7O4N.A
51 53 1 0 0 
SMALL
USER_CHARGES


@<TRIPOS>ATOM
  1 N        2.2510   -11.0770     9.8420 N.4   1 SAM  -0.8530 
  2 H1       2.3932   -11.0770     8.8421 H     1 SAM   0.4500 
  3 H2       1.2614   -11.0452    10.0413 H     1 SAM   0.4500 
  4 H3       2.6475   -11.9171    10.2385 H     1 SAM   0.4500 
  5 CA       2.9260    -9.8670    10.4470 C.3   1 SAM   0.3170 
  6 HA       2.7652    -9.8789    11.5250 H     1 SAM   0.0800 
  7 C        2.3130    -8.6180     9.8210 C.2   1 SAM   0.9060 
  8 O        1.4580    -8.7010     8.9960 O.co2 1 SAM  -0.9000 
  9 CB       4.4450    -9.8790    10.2320 C.3   1 SAM  -0.1600 
 10 HB1      4.8465   -10.7800    10.6959 H     1 SAM   0.0800 
 11 HB2      4.8642    -9.0003    10.7222 H     1 SAM   0.0800 
 12 CG       4.8760    -9.8620     8.7910 C.3   1 SAM  -0.1525 
 13 HG1      4.4552    -8.9848     8.2996 H     1 SAM   0.0800 
 14 HG2      4.5148   -10.7637     8.2965 H     1 SAM   0.0800 
 15 SD       6.6890    -9.8010     8.6790 S.3   1 SAM   0.9775 
 16 CE       6.9320    -8.7110     7.2970 C.3   1 SAM  -0.2325 
 17 HE1      6.7631    -7.6814     7.6123 H     1 SAM   0.0800 
 18 HE2      6.2299    -8.9679     6.5038 H     1 SAM   0.0800 
 19 HE3      7.9520    -8.8151     6.9271 H     1 SAM   0.0800 
 20 C5'      7.0010   -11.3860     7.9820 C.3   1 SAM  -0.1525 
 21 H5'1     7.9429   -11.3647     7.4339 H     1 SAM   0.0800 
 22 H5'2     6.1912   -11.6518     7.3025 H     1 SAM   0.0800 
 23 C4'      7.0850   -12.4070     9.0930 C.3   1 SAM   0.2000 
 24 H4'      6.3832   -12.0691     9.8555 H     1 SAM   0.0800 
 25 O4'      6.8080   -13.6850     8.4950 O.3   1 SAM  -0.5600 
 26 C3'      8.4380   -12.5480     9.8030 C.3   1 SAM   0.2000 
 27 H3'      9.0402   -11.6394     9.8028 H     1 SAM   0.0800 
 28 O3'      8.2580   -12.8740    11.1820 O.3   1 SAM  -0.6800 
 29 H3'      9.1281   -13.0111    11.5638 H     1 SAM   0.4000 
 30 C2'      9.0740   -13.7120     9.0320 C.3   1 SAM   0.2000 
 31 H2'      9.6136   -13.3763     8.1464 H     1 SAM   0.0800 
 32 O2'     10.0600   -14.4330     9.7350 O.3   1 SAM  -0.6800 
 33 H2'      9.6571   -14.7663    10.5401 H     1 SAM   0.4000 
 34 C1'      7.8460   -14.5820     8.8130 C.3   1 SAM   0.5691 
 35 H1'      7.6787   -15.1835     9.7065 H     1 SAM   0.0800 
 36 OXT      2.6640    -7.5310    10.2100 O.co2 1 SAM  -0.9000 
 37 N1       6.6070   -19.2400     7.1310 N.2   1 SAM  -0.6610 
 38 C2       6.2630   -18.5470     8.2280 C.2   1 SAM   0.6010 
 39 H2       5.6081   -19.0667     8.9117 H     1 SAM   0.0600 
 40 N3       6.6100   -17.3050     8.6040 N.2   1 SAM  -0.6610 
 41 C4       7.3990   -16.7490     7.6720 C.2   1 SAM   0.5000 
 42 C5       7.8060   -17.3100     6.4750 C.2   1 SAM   0.4500 
 43 C6       7.3820   -18.6250     6.2010 C.2   1 SAM   0.6110 
 44 N6       7.7550   -19.3100     5.1210 N.2   1 SAM  -0.2000 
 45 H62      7.4175   -20.2512     4.9785 H     1 SAM   0.4000 
 46 H61      8.3753   -18.8881     4.4447 H     1 SAM   0.4000 
 47 N7       8.6410   -16.4320     5.7930 N.2   1 SAM  -0.6960 
 48 C8       8.6470   -15.3490     6.5260 C.3   1 SAM   0.4551 
 49 H81      8.1767   -14.5436     5.9619 H     1 SAM   0.0800 
 50 H82      9.6808   -15.0828     6.7462 H     1 SAM   0.0800 
 51 N9       7.9730   -15.5070     7.7100 N.pl3 1 SAM  -0.7882 
@<TRIPOS>BOND
  1   1   2  1   
  2   1   3  1   
  3   1   4  1   
  4   1   5  1   
  5   5   6  1   
  6   5   7  1   
  7   5   9  1   
  8   7   8  ar  
  9   7  36  ar  
 10   9  10  1   
 11   9  11  1   
 12   9  12  1   
 13  12  13  1   
 14  12  14  1   
 15  12  15  1   
 16  15  16  1   
 17  15  20  1   
 18  16  17  1   
 19  16  18  1   
 20  16  19  1   
 21  20  21  1   
 22  20  22  1   
 23  20  23  1   
 24  23  24  1   
 25  23  25  1   
 26  23  26  1   
 27  25  34  1   
 28  26  27  1   
 29  26  28  1   
 30  26  30  1   
 31  28  29  1   
 32  30  31  1   
 33  30  32  1   
 34  30  34  1   
 35  32  33  1   
 36  34  35  1   
 37  34  51  1   
 38  37  38  2   
 39  37  43  1   
 40  38  39  1   
 41  38  40  1   
 42  40  41  2   
 43  41  42  1   
 44  41  51  1   
 45  42  43  1   
 46  42  47  2   
 47  43  44  2   
 48  44  45  1   
 49  44  46  1   
 50  47  48  1   
 51  48  49  1   
 52  48  50  1   
 53  48  51  1   
@<TRIPOS>SUBSTRUCTURE
  1 SAM  25 GROUP 4 A **** 0

# MOE 2022.02 (io_trps.svl 2020.11)
