# created with PyMOL 2.5.0
@<TRIPOS>MOLECULE
6KQQ
12 13 1                 
SMALL
USER_CHARGES
@<TRIPOS>ATOM
1	 CAD	8.962	9.252	2.710	C.2	1	DQL2102	0.000	
2	 CAE	10.548	11.087	2.440	C.2	1	DQL2102	0.000	
3	 CAH	9.996	9.879	2.013	C.2	1	DQL2102	0.000	
4	 CAI	9.239	12.925	5.657	C.2	1	DQL2102	0.000	
5	 CAJ	8.459	9.856	3.850	C.2	1	DQL2102	0.000	
6	 CAK	10.049	11.692	3.593	C.2	1	DQL2102	0.000	
7	 CAL	9.007	11.085	4.294	C.2	1	DQL2102	0.000	
8	 NAA	8.996	13.829	6.751	N.pl3	1	DQL2102	0.000	
9	 NAF	8.588	11.785	5.422	N.2	1	DQL2102	0.000	
10	 OAB	7.415	9.218	4.546	O.3	1	DQL2102	0.000	
11	 SAC	10.646	9.106	0.518	S.3	1	DQL2102	0.000	
12	 SAG	10.425	13.133	4.447	S.2	1	DQL2102	0.000	
@<TRIPOS>BOND
1 1 3 ar
2 1 5 ar
3 2 3 ar
4 2 6 ar
5 3 11 1
6 4 8 1
7 4 9 ar
8 4 12 ar
9 5 7 ar
10 5 10 1
11 6 7 ar
12 6 12 ar
13 7 9 ar
@<TRIPOS>SUBSTRUCTURE
1	DQL2102	1	GROUP	1 A	DQL
