@<TRIPOS>MOLECULE
6KQQ.A
17 18 1 0 0 
SMALL
USER_CHARGES


@<TRIPOS>ATOM
  1 CAD      8.9620     9.2520     2.7100 C.ar  1 DQL  -0.1500 
  2 HAD      8.5605     8.3104     2.3656 H     1 DQL   0.1500 
  3 CAE     10.5480    11.0870     2.4400 C.ar  1 DQL  -0.1500 
  4 HAE     11.3516    11.5477     1.8846 H     1 DQL   0.1500 
  5 CAH      9.9960     9.8790     2.0130 C.ar  1 DQL  -0.0470 
  6 CAI      9.2390    12.9250     5.6570 C.2   1 DQL   0.4621 
  7 CAJ      8.4590     9.8560     3.8500 C.ar  1 DQL   0.0825 
  8 CAK     10.0490    11.6920     3.5930 C.ar  1 DQL   0.0400 
  9 CAL      9.0070    11.0850     4.2940 C.ar  1 DQL   0.2272 
 10 NAA      8.9960    13.8290     6.7510 N.pl3 1 DQL  -0.8840 
 11 HAA1     9.5514    14.6672     6.8464 H     1 DQL   0.4000 
 12 HAA2     8.2701    13.6250     7.4230 H     1 DQL   0.4000 
 13 NAF      8.5880    11.7850     5.4220 N.2   1 DQL  -0.5653 
 14 OAB      7.4150     9.2180     4.5460 O.3   1 DQL  -0.5325 
 15 HAB      7.1114     9.6775     5.3323 H     1 DQL   0.4500 
 16 SAC     10.6460     9.1060     0.5180 S.3   1 DQL  -0.9530 
 17 SAG     10.4250    13.1330     4.4470 S.3   1 DQL  -0.0800 
@<TRIPOS>BOND
  1   1   2  1   
  2   1   5  ar  
  3   1   7  ar  
  4   3   4  1   
  5   3   5  ar  
  6   3   8  ar  
  7   5  16  1   
  8   6  10  1   
  9   6  13  2   
 10   6  17  1   
 11   7   9  ar  
 12   7  14  1   
 13   8   9  ar  
 14   8  17  1   
 15   9  13  1   
 16  10  11  1   
 17  10  12  1   
 18  14  15  1   
@<TRIPOS>SUBSTRUCTURE
  1 DQL   9 GROUP 4 A **** 0

# MOE 2022.02 (io_trps.svl 2020.11)
