# created with PyMOL 2.5.0
@<TRIPOS>MOLECULE
6KQQ
24 27 1                 
SMALL
USER_CHARGES
@<TRIPOS>ATOM
1	  C1	-12.596	4.761	9.207	C.2	1	DW92103	0.000	
2	  C2	-11.262	5.044	9.506	C.2	1	DW92103	0.000	
3	  C3	-10.261	4.988	8.530	C.2	1	DW92103	0.000	
4	  C4	-10.689	4.616	7.258	C.2	1	DW92103	0.000	
5	  C5	-12.013	4.354	6.948	C.2	1	DW92103	0.000	
6	  C6	-12.979	4.414	7.905	C.2	1	DW92103	0.000	
7	  N7	-13.467	4.861	10.291	N.2	1	DW92103	0.000	
8	  C8	-12.931	5.207	11.453	C.2	1	DW92103	0.000	
9	  S9	-11.270	5.415	11.173	S.2	1	DW92103	0.000	
10	 N10	-13.653	5.371	12.702	N.pl3	1	DW92103	0.000	
11	 O11	-14.300	4.120	7.566	O.3	1	DW92103	0.000	
12	 S12	-9.807	4.430	5.726	S.3	1	DW92103	0.000	
13	 S13	-9.145	5.787	4.705	S.3	1	DW92103	0.000	
14	 C14	-8.669	7.440	5.146	C.2	1	DW92103	0.000	
15	 C15	-8.650	7.917	6.458	C.2	1	DW92103	0.000	
16	 C16	-8.206	9.213	6.651	C.2	1	DW92103	0.000	
17	 C17	-7.764	9.963	5.523	C.2	1	DW92103	0.000	
18	 C18	-7.757	9.409	4.246	C.2	1	DW92103	0.000	
19	 C19	-8.195	8.135	4.061	C.2	1	DW92103	0.000	
20	 N20	-7.286	11.261	5.574	N.2	1	DW92103	0.000	
21	 C21	-6.913	11.772	4.389	C.2	1	DW92103	0.000	
22	 S22	-7.139	10.589	3.191	S.2	1	DW92103	0.000	
23	 O23	-8.210	9.773	7.950	O.3	1	DW92103	0.000	
24	 N24	-6.391	13.102	4.199	N.pl3	1	DW92103	0.000	
@<TRIPOS>BOND
1 1 2 ar
2 1 6 ar
3 1 7 ar
4 2 3 ar
5 2 9 ar
6 3 4 ar
7 4 5 ar
8 4 12 1
9 5 6 ar
10 6 11 1
11 7 8 ar
12 8 9 ar
13 8 10 1
14 12 13 1
15 13 14 1
16 14 15 ar
17 14 19 ar
18 15 16 ar
19 16 17 ar
20 16 23 1
21 17 18 ar
22 17 20 ar
23 18 19 ar
24 18 22 ar
25 20 21 ar
26 21 22 ar
27 21 24 1
@<TRIPOS>SUBSTRUCTURE
1	DW92103	1	GROUP	1 A	DW9
