# created with PyMOL 2.5.2
@<TRIPOS>MOLECULE
DW9
24 27 1                 
SMALL
USER_CHARGES
@<TRIPOS>ATOM
1	  C1	-12.518	5.378	8.987	C.2	1	DW90	0.000	
2	  C2	-11.486	4.626	9.552	C.2	1	DW90	0.000	
3	  C3	-10.333	4.345	8.823	C.2	1	DW90	0.000	
4	  C4	-10.198	4.812	7.525	C.2	1	DW90	0.000	
5	  C5	-11.221	5.564	6.950	C.2	1	DW90	0.000	
6	  C6	-12.362	5.851	7.663	C.2	1	DW90	0.000	
7	  C8	-13.481	5.034	11.003	C.2	1	DW90	0.000	
8	 C14	-8.570	7.031	5.100	C.2	1	DW90	0.000	
9	 C15	-8.068	7.397	6.348	C.2	1	DW90	0.000	
10	 C16	-7.656	8.688	6.583	C.2	1	DW90	0.000	
11	 C17	-7.732	9.663	5.561	C.2	1	DW90	0.000	
12	 C18	-8.238	9.284	4.315	C.2	1	DW90	0.000	
13	 C19	-8.653	7.974	4.088	C.2	1	DW90	0.000	
14	 C21	-7.538	11.673	4.546	C.2	1	DW90	0.000	
15	  N7	-13.559	5.557	9.829	N.2	1	DW90	0.000	
16	 N10	-14.459	5.127	11.975	N.pl3	1	DW90	0.000	
17	 N20	-7.377	10.966	5.610	N.2	1	DW90	0.000	
18	 N24	-7.222	13.014	4.436	N.pl3	1	DW90	0.000	
19	 O11	-13.350	6.585	7.087	O.3	1	DW90	0.000	
20	 O23	-7.169	9.028	7.806	O.3	1	DW90	0.000	
21	  S9	-11.953	4.186	11.194	S.3	1	DW90	0.000	
22	 S12	-8.738	4.456	6.606	S.3	1	DW90	0.000	
23	 S13	-9.090	5.374	4.807	S.3	1	DW90	0.000	
24	 S22	-8.214	10.692	3.254	S.3	1	DW90	0.000	
@<TRIPOS>BOND
1 12 24 1
2 14 24 1
3 12 13 2
4 8 13 1
5 14 18 1
6 11 12 1
7 14 17 2
8 8 23 1
9 22 23 1
10 8 9 2
11 11 17 1
12 10 11 2
13 4 22 1
14 9 10 1
15 10 20 1
16 4 5 2
17 5 6 1
18 3 4 1
19 6 19 1
20 1 6 2
21 2 3 2
22 1 2 1
23 1 15 1
24 2 21 1
25 7 15 2
26 7 21 1
27 7 16 1
@<TRIPOS>SUBSTRUCTURE
1	DW90	1	GROUP	1 ****	DW9
