@<TRIPOS>MOLECULE
DW9.****
34 37 1 0 0 
SMALL
USER_CHARGES


@<TRIPOS>ATOM
  1 C1     -12.5180     5.3780     8.9870 C.ar  1 DW90   0.2272 
  2 C2     -11.4860     4.6260     9.5520 C.ar  1 DW90   0.0400 
  3 C3     -10.3330     4.3450     8.8230 C.ar  1 DW90  -0.1500 
  4 H3      -9.5419     3.7616     9.2704 H     1 DW90   0.1500 
  5 C4     -10.1980     4.8120     7.5250 C.ar  1 DW90   0.1015 
  6 C5     -11.2210     5.5640     6.9500 C.ar  1 DW90  -0.1500 
  7 H5     -11.1172     5.9241     5.9371 H     1 DW90   0.1500 
  8 C6     -12.3620     5.8510     7.6630 C.ar  1 DW90   0.0825 
  9 C8     -13.4810     5.0340    11.0030 C.2   1 DW90   0.4621 
 10 C14     -8.5700     7.0310     5.1000 C.ar  1 DW90   0.1015 
 11 C15     -8.0680     7.3970     6.3480 C.ar  1 DW90  -0.1500 
 12 H15     -8.0021     6.6614     7.1360 H     1 DW90   0.1500 
 13 C16     -7.6560     8.6880     6.5830 C.ar  1 DW90   0.0825 
 14 C17     -7.7320     9.6630     5.5610 C.ar  1 DW90   0.2272 
 15 C18     -8.2380     9.2840     4.3150 C.ar  1 DW90   0.0400 
 16 C19     -8.6530     7.9740     4.0880 C.ar  1 DW90  -0.1500 
 17 H19     -9.0407     7.6922     3.1202 H     1 DW90   0.1500 
 18 C21     -7.5380    11.6730     4.5460 C.2   1 DW90   0.4621 
 19 N7     -13.5590     5.5570     9.8290 N.2   1 DW90  -0.5653 
 20 N10    -14.4590     5.1270    11.9750 N.pl3 1 DW90  -0.8840 
 21 H101   -14.3209     4.6879    12.8740 H     1 DW90   0.4000 
 22 H102   -15.3119     5.6340    11.7863 H     1 DW90   0.4000 
 23 N20     -7.3770    10.9660     5.6100 N.2   1 DW90  -0.5653 
 24 N24     -7.2220    13.0140     4.4360 N.pl3 1 DW90  -0.8840 
 25 H241    -7.3773    13.4995     3.5641 H     1 DW90   0.4000 
 26 H242    -6.8358    13.5084     5.2275 H     1 DW90   0.4000 
 27 O11    -13.3500     6.5850     7.0870 O.3   1 DW90  -0.5325 
 28 H11    -14.1147     6.7447     7.6450 H     1 DW90   0.4500 
 29 O23     -7.1690     9.0280     7.8060 O.3   1 DW90  -0.5325 
 30 H23     -6.8991     9.9450     7.8946 H     1 DW90   0.4500 
 31 S9     -11.9530     4.1860    11.1940 S.3   1 DW90  -0.0800 
 32 S12     -8.7380     4.4560     6.6060 S.3   1 DW90  -0.1015 
 33 S13     -9.0900     5.3740     4.8070 S.3   1 DW90  -0.1015 
 34 S22     -8.2140    10.6920     3.2540 S.3   1 DW90  -0.0800 
@<TRIPOS>BOND
  1   1   2  ar  
  2   1   8  ar  
  3   1  19  1   
  4   2   3  ar  
  5   2  31  1   
  6   3   4  1   
  7   3   5  ar  
  8   5   6  ar  
  9   5  32  1   
 10   6   7  1   
 11   6   8  ar  
 12   8  27  1   
 13   9  19  2   
 14   9  20  1   
 15   9  31  1   
 16  10  11  ar  
 17  10  16  ar  
 18  10  33  1   
 19  11  12  1   
 20  11  13  ar  
 21  13  14  ar  
 22  13  29  1   
 23  14  15  ar  
 24  14  23  1   
 25  15  16  ar  
 26  15  34  1   
 27  16  17  1   
 28  18  23  2   
 29  18  24  1   
 30  18  34  1   
 31  20  21  1   
 32  20  22  1   
 33  24  25  1   
 34  24  26  1   
 35  27  28  1   
 36  29  30  1   
 37  32  33  1   
@<TRIPOS>SUBSTRUCTURE
  1 DW90  11 GROUP 4 **** **** 0

# MOE 2022.02 (io_trps.svl 2020.11)
