# created with PyMOL 2.5.0
@<TRIPOS>MOLECULE
6KQQ
27 29 1                 
SMALL
USER_CHARGES
@<TRIPOS>ATOM
1	   N	2.478	8.179	10.788	N.3	1	SAM2101	0.000	
2	  CA	1.677	8.581	9.626	C.3	1	SAM2101	0.000	
3	   C	0.470	9.409	10.061	C.2	1	SAM2101	0.000	
4	   O	0.344	9.739	11.251	O.co2	1	SAM2101	0.000	
5	  CB	1.242	7.355	8.818	C.3	1	SAM2101	0.000	
6	  CG	2.322	6.863	7.850	C.3	1	SAM2101	0.000	
7	  SD	2.621	8.059	6.512	S.3	1	SAM2101	0.000	
8	  CE	2.700	6.939	5.096	C.3	1	SAM2101	0.000	
9	 C5'	4.406	8.362	6.637	C.3	1	SAM2101	0.000	
10	 C4'	4.793	9.408	7.668	C.3	1	SAM2101	0.000	
11	 O4'	4.807	8.792	8.954	O.3	1	SAM2101	0.000	
12	 C3'	6.198	9.940	7.411	C.3	1	SAM2101	0.000	
13	 O3'	6.161	11.132	6.648	O.3	1	SAM2101	0.000	
14	 C2'	6.718	10.176	8.817	C.3	1	SAM2101	0.000	
15	 O2'	6.286	11.455	9.247	O.3	1	SAM2101	0.000	
16	 C1'	5.973	9.169	9.670	C.3	1	SAM2101	0.000	
17	 OXT	-0.388	9.797	9.248	O.co2	1	SAM2101	0.000	
18	  N1	10.287	7.130	11.820	N.2	1	SAM2101	0.000	
19	  C2	9.877	8.442	11.833	C.2	1	SAM2101	0.000	
20	  N3	8.696	8.803	11.206	N.2	1	SAM2101	0.000	
21	  C4	7.952	7.857	10.579	C.2	1	SAM2101	0.000	
22	  C5	8.350	6.528	10.555	C.2	1	SAM2101	0.000	
23	  C6	9.538	6.169	11.187	C.2	1	SAM2101	0.000	
24	  N6	9.976	4.916	11.182	N.pl3	1	SAM2101	0.000	
25	  N7	7.420	5.820	9.861	N.2	1	SAM2101	0.000	
26	  C8	6.455	6.677	9.460	C.2	1	SAM2101	0.000	
27	  N9	6.768	7.942	9.902	N.2	1	SAM2101	0.000	
@<TRIPOS>BOND
1 1 2 1
2 2 3 1
3 2 5 1
4 3 4 ar
5 3 17 ar
6 5 6 1
7 6 7 1
8 7 8 1
9 7 9 1
10 9 10 1
11 10 11 1
12 10 12 1
13 11 16 1
14 12 13 1
15 12 14 1
16 14 15 1
17 14 16 1
18 16 27 1
19 18 19 ar
20 18 23 ar
21 19 20 ar
22 20 21 ar
23 21 22 ar
24 21 27 ar
25 22 23 ar
26 22 25 ar
27 23 24 1
28 25 26 ar
29 26 27 ar
@<TRIPOS>SUBSTRUCTURE
1	SAM2101	1	GROUP	1 A	SAM
