# created with PyMOL 2.4.0
@<TRIPOS>MOLECULE
temp
50 52 1                 
SMALL
USER_CHARGES
@<TRIPOS>ATOM
1	   N	2.478	8.179	10.788	N.4	1	SAM1	0.000	
2	  CA	1.677	8.581	9.626	C.3	1	SAM1	0.000	
3	   C	0.470	9.409	10.061	C.2	1	SAM1	0.000	
4	   O	0.344	9.739	11.251	O.co2	1	SAM1	0.000	
5	  CB	1.242	7.355	8.818	C.3	1	SAM1	0.000	
6	  CG	2.322	6.863	7.850	C.3	1	SAM1	0.000	
7	  SD	2.621	8.059	6.512	S.3	1	SAM1	0.000	
8	  CE	2.700	6.939	5.096	C.3	1	SAM1	0.000	
9	 C5'	4.406	8.362	6.637	C.3	1	SAM1	0.000	
10	 C4'	4.793	9.408	7.668	C.3	1	SAM1	0.000	
11	 O4'	4.807	8.792	8.954	O.3	1	SAM1	0.000	
12	 C3'	6.198	9.940	7.411	C.3	1	SAM1	0.000	
13	 O3'	6.161	11.132	6.648	O.3	1	SAM1	0.000	
14	 C2'	6.718	10.176	8.817	C.3	1	SAM1	0.000	
15	 O2'	6.286	11.455	9.247	O.3	1	SAM1	0.000	
16	 C1'	5.973	9.169	9.670	C.3	1	SAM1	0.000	
17	 OXT	-0.388	9.797	9.248	O.co2	1	SAM1	0.000	
18	  N1	10.287	7.130	11.820	N.2	1	SAM1	0.000	
19	  C2	9.877	8.442	11.833	C.2	1	SAM1	0.000	
20	  N3	8.696	8.803	11.206	N.2	1	SAM1	0.000	
21	  C4	7.952	7.857	10.579	C.2	1	SAM1	0.000	
22	  C5	8.350	6.528	10.555	C.2	1	SAM1	0.000	
23	  C6	9.538	6.169	11.187	C.2	1	SAM1	0.000	
24	  N6	9.976	4.916	11.182	N.pl3	1	SAM1	0.000	
25	  N7	7.420	5.820	9.861	N.2	1	SAM1	0.000	
26	  C8	6.455	6.677	9.460	C.2	1	SAM1	0.000	
27	  N9	6.768	7.942	9.902	N.2	1	SAM1	0.000	
28	  HA	2.297	9.205	8.982	 H	1	SAM1	0.000	
29	 HB1	0.353	7.615	8.244	 H	1	SAM1	0.000	
30	 HB2	1.003	6.549	9.512	 H	1	SAM1	0.000	
31	 HG1	2.001	5.917	7.413	 H	1	SAM1	0.000	
32	 HG2	3.249	6.712	8.403	 H	1	SAM1	0.000	
33	 HE1	1.693	6.615	4.833	 H	1	SAM1	0.000	
34	 HE2	3.306	6.070	5.353	 H	1	SAM1	0.000	
35	 HE3	3.148	7.457	4.248	 H	1	SAM1	0.000	
36	  H1	1.919	7.599	11.398	 H	1	SAM1	0.000	
37	  H2	2.780	9.002	11.290	 H	1	SAM1	0.000	
38	  H2	10.475	9.190	12.332	 H	1	SAM1	0.000	
39	  H3	3.286	7.660	10.476	 H	1	SAM1	0.000	
40	  H8	5.580	6.412	8.886	 H	1	SAM1	0.000	
41	 H1'	5.753	9.625	10.635	 H	1	SAM1	0.000	
42	 H2'	7.804	10.097	8.874	 H	1	SAM1	0.000	
43	 H2'	6.691	12.107	8.670	 H	1	SAM1	0.000	
44	 H3'	6.828	9.265	6.832	 H	1	SAM1	0.000	
45	 H3'	5.613	11.763	7.121	 H	1	SAM1	0.000	
46	 H4'	4.075	10.226	7.610	 H	1	SAM1	0.000	
47	 H61	9.444	4.197	10.712	 H	1	SAM1	0.000	
48	 H62	10.841	4.681	11.648	 H	1	SAM1	0.000	
49	H5'1	4.765	8.694	5.663	 H	1	SAM1	0.000	
50	H5'2	4.893	7.424	6.903	 H	1	SAM1	0.000	
@<TRIPOS>BOND
1 1 2 1
2 1 36 1
3 1 37 1
4 1 39 1
5 2 3 1
6 2 5 1
7 2 28 1
8 3 4 ar
9 3 17 ar
10 5 6 1
11 5 29 1
12 5 30 1
13 6 7 1
14 6 31 1
15 6 32 1
16 7 8 1
17 7 9 1
18 8 33 1
19 8 34 1
20 8 35 1
21 9 10 1
22 9 49 1
23 9 50 1
24 10 11 1
25 10 12 1
26 10 46 1
27 11 16 1
28 12 13 1
29 12 14 1
30 12 44 1
31 13 45 1
32 14 15 1
33 14 16 1
34 14 42 1
35 15 43 1
36 16 27 1
37 16 41 1
38 18 19 ar
39 18 23 ar
40 19 20 ar
41 19 38 1
42 20 21 ar
43 21 22 ar
44 21 27 ar
45 22 23 ar
46 22 25 ar
47 23 24 1
48 24 47 1
49 24 48 1
50 25 26 ar
51 26 27 ar
52 26 40 1
@<TRIPOS>SUBSTRUCTURE
1	SAM1	1	GROUP	1 A	SAM
