@<TRIPOS>MOLECULE
6KQQ.A
51 53 1 0 0 
SMALL
USER_CHARGES


@<TRIPOS>ATOM
  1 N        2.4780     8.1790    10.7880 N.4   1 SAM  -0.8530 
  2 H1       1.9194     7.5988    11.3975 H     1 SAM   0.4500 
  3 H2       2.7797     9.0019    11.2899 H     1 SAM   0.4500 
  4 H3       3.2862     7.6596    10.4764 H     1 SAM   0.4500 
  5 CA       1.6770     8.5810     9.6260 C.3   1 SAM   0.3170 
  6 HA       2.2968     9.2051     8.9822 H     1 SAM   0.0800 
  7 C        0.4700     9.4090    10.0610 C.2   1 SAM   0.9060 
  8 O        0.3440     9.7390    11.2510 O.co2 1 SAM  -0.9000 
  9 CB       1.2420     7.3550     8.8180 C.3   1 SAM  -0.1600 
 10 HB1      0.3529     7.6150     8.2436 H     1 SAM   0.0800 
 11 HB2      1.0035     6.5486     9.5115 H     1 SAM   0.0800 
 12 CG       2.3220     6.8630     7.8500 C.3   1 SAM  -0.1525 
 13 HG1      2.0009     5.9173     7.4134 H     1 SAM   0.0800 
 14 HG2      3.2493     6.7118     8.4025 H     1 SAM   0.0800 
 15 SD       2.6210     8.0590     6.5120 S.3   1 SAM   0.9775 
 16 CE       2.7000     6.9390     5.0960 C.3   1 SAM  -0.2325 
 17 HE1      1.6933     6.6145     4.8328 H     1 SAM   0.0800 
 18 HE2      3.3062     6.0704     5.3532 H     1 SAM   0.0800 
 19 HE3      3.1482     7.4566     4.2479 H     1 SAM   0.0800 
 20 C5'      4.4060     8.3620     6.6370 C.3   1 SAM  -0.1525 
 21 H5'1     4.7647     8.6942     5.6628 H     1 SAM   0.0800 
 22 H5'2     4.8934     7.4241     6.9031 H     1 SAM   0.0800 
 23 C4'      4.7930     9.4080     7.6680 C.3   1 SAM   0.2000 
 24 H4'      4.0752    10.2263     7.6103 H     1 SAM   0.0800 
 25 O4'      4.8070     8.7920     8.9540 O.3   1 SAM  -0.5600 
 26 C3'      6.1980     9.9400     7.4110 C.3   1 SAM   0.2000 
 27 H3'      6.8282     9.2649     6.8320 H     1 SAM   0.0800 
 28 O3'      6.1610    11.1320     6.6480 O.3   1 SAM  -0.6800 
 29 H3'      5.6132    11.7626     7.1211 H     1 SAM   0.4000 
 30 C2'      6.7180    10.1760     8.8170 C.3   1 SAM   0.2000 
 31 H2'      7.8036    10.0971     8.8743 H     1 SAM   0.0800 
 32 O2'      6.2860    11.4550     9.2470 O.3   1 SAM  -0.6800 
 33 H2'      6.6907    12.1071     8.6703 H     1 SAM   0.4000 
 34 C1'      5.9730     9.1690     9.6700 C.3   1 SAM   0.5691 
 35 H1'      5.7534     9.6249    10.6354 H     1 SAM   0.0800 
 36 OXT     -0.3880     9.7970     9.2480 O.co2 1 SAM  -0.9000 
 37 N1      10.2870     7.1300    11.8200 N.2   1 SAM  -0.6610 
 38 C2       9.8770     8.4420    11.8330 C.2   1 SAM   0.6010 
 39 H2      10.4751     9.1904    12.3316 H     1 SAM   0.0600 
 40 N3       8.6960     8.8030    11.2060 N.2   1 SAM  -0.6610 
 41 C4       7.9520     7.8570    10.5790 C.2   1 SAM   0.5000 
 42 C5       8.3500     6.5280    10.5550 C.2   1 SAM   0.4500 
 43 C6       9.5380     6.1690    11.1870 C.2   1 SAM   0.6110 
 44 N6       9.9760     4.9160    11.1820 N.2   1 SAM  -0.2000 
 45 H62     10.8409     4.6815    11.6478 H     1 SAM   0.4000 
 46 H61      9.4443     4.1971    10.7124 H     1 SAM   0.4000 
 47 N7       7.4200     5.8200     9.8610 N.2   1 SAM  -0.6960 
 48 C8       6.4550     6.6770     9.4600 C.3   1 SAM   0.4551 
 49 H81      5.4966     6.3702     9.8788 H     1 SAM   0.0800 
 50 H82      6.3934     6.6749     8.3717 H     1 SAM   0.0800 
 51 N9       6.7680     7.9420     9.9020 N.pl3 1 SAM  -0.7882 
@<TRIPOS>BOND
  1   1   2  1   
  2   1   3  1   
  3   1   4  1   
  4   1   5  1   
  5   5   6  1   
  6   5   7  1   
  7   5   9  1   
  8   7   8  ar  
  9   7  36  ar  
 10   9  10  1   
 11   9  11  1   
 12   9  12  1   
 13  12  13  1   
 14  12  14  1   
 15  12  15  1   
 16  15  16  1   
 17  15  20  1   
 18  16  17  1   
 19  16  18  1   
 20  16  19  1   
 21  20  21  1   
 22  20  22  1   
 23  20  23  1   
 24  23  24  1   
 25  23  25  1   
 26  23  26  1   
 27  25  34  1   
 28  26  27  1   
 29  26  28  1   
 30  26  30  1   
 31  28  29  1   
 32  30  31  1   
 33  30  32  1   
 34  30  34  1   
 35  32  33  1   
 36  34  35  1   
 37  34  51  1   
 38  37  38  2   
 39  37  43  1   
 40  38  39  1   
 41  38  40  1   
 42  40  41  2   
 43  41  42  1   
 44  41  51  1   
 45  42  43  1   
 46  42  47  2   
 47  43  44  2   
 48  44  45  1   
 49  44  46  1   
 50  47  48  1   
 51  48  49  1   
 52  48  50  1   
 53  48  51  1   
@<TRIPOS>SUBSTRUCTURE
  1 SAM  25 GROUP 4 A **** 0

# MOE 2022.02 (io_trps.svl 2020.11)
