# created with PyMOL 2.5.0
@<TRIPOS>MOLECULE
3FZG
27 29 1                 
SMALL
USER_CHARGES
@<TRIPOS>ATOM
1	   N	10.466	12.431	21.579	N.3	1	SAM300	0.000	
2	  CA	9.804	12.863	22.827	C.3	1	SAM300	0.000	
3	   C	10.232	11.970	23.981	C.2	1	SAM300	0.000	
4	   O	10.553	10.821	23.770	O.co2	1	SAM300	0.000	
5	  CB	8.266	12.827	22.659	C.3	1	SAM300	0.000	
6	  CG	7.777	11.492	22.055	C.3	1	SAM300	0.000	
7	  SD	5.953	11.516	21.910	S.3	1	SAM300	0.000	
8	  CE	5.591	9.736	22.051	C.3	1	SAM300	0.000	
9	 C5'	5.602	11.895	20.183	C.3	1	SAM300	0.000	
10	 C4'	6.072	13.314	19.840	C.3	1	SAM300	0.000	
11	 O4'	6.162	13.459	18.417	O.3	1	SAM300	0.000	
12	 C3'	5.078	14.361	20.349	C.3	1	SAM300	0.000	
13	 O3'	5.795	15.396	21.022	O.3	1	SAM300	0.000	
14	 C2'	4.365	14.866	19.072	C.3	1	SAM300	0.000	
15	 O2'	3.951	16.235	19.219	O.3	1	SAM300	0.000	
16	 C1'	5.463	14.659	18.003	C.3	1	SAM300	0.000	
17	 OXT	10.254	12.404	25.127	O.co2	1	SAM300	0.000	
18	  N1	6.481	15.427	13.003	N.2	1	SAM300	0.000	
19	  C2	7.183	15.838	14.070	C.2	1	SAM300	0.000	
20	  N3	6.777	15.563	15.310	N.2	1	SAM300	0.000	
21	  C4	5.635	14.856	15.529	C.2	1	SAM300	0.000	
22	  C5	4.859	14.408	14.432	C.2	1	SAM300	0.000	
23	  C6	5.333	14.717	13.129	C.2	1	SAM300	0.000	
24	  N6	4.629	14.305	12.013	N.pl3	1	SAM300	0.000	
25	  N7	3.793	13.739	14.937	N.2	1	SAM300	0.000	
26	  C8	3.860	13.748	16.237	C.2	1	SAM300	0.000	
27	  N9	4.984	14.427	16.642	N.2	1	SAM300	0.000	
@<TRIPOS>BOND
1 1 2 1
2 2 3 1
3 2 5 1
4 3 4 ar
5 3 17 ar
6 5 6 1
7 6 7 1
8 7 8 1
9 7 9 1
10 9 10 1
11 10 11 1
12 10 12 1
13 11 16 1
14 12 13 1
15 12 14 1
16 14 15 1
17 14 16 1
18 16 27 1
19 18 19 ar
20 18 23 ar
21 19 20 ar
22 20 21 ar
23 21 22 ar
24 21 27 ar
25 22 23 ar
26 22 25 ar
27 23 24 1
28 25 26 ar
29 26 27 ar
@<TRIPOS>SUBSTRUCTURE
1	SAM300	1	GROUP	1 A	SAM
