@<TRIPOS>MOLECULE
3FZG.A
51 53 1 0 0 
SMALL
USER_CHARGES


@<TRIPOS>ATOM
  1 N       10.4660    12.4310    21.5790 N.4   1 SAM  -0.8530 
  2 H1      10.1947    11.4819    21.3651 H     1 SAM   0.4500 
  3 H2      11.4681    12.4764    21.6963 H     1 SAM   0.4500 
  4 H3      10.1877    13.0393    20.8223 H     1 SAM   0.4500 
  5 CA       9.8040    12.8630    22.8270 C.3   1 SAM   0.3170 
  6 HA      10.1038    13.8875    23.0476 H     1 SAM   0.0800 
  7 C       10.2320    11.9700    23.9810 C.2   1 SAM   0.9060 
  8 O       10.5530    10.8210    23.7700 O.co2 1 SAM  -0.9000 
  9 CB       8.2660    12.8270    22.6590 C.3   1 SAM  -0.1600 
 10 HB1      7.9655    13.6416    22.0000 H     1 SAM   0.0800 
 11 HB2      7.8027    12.9608    23.6365 H     1 SAM   0.0800 
 12 CG       7.7770    11.4920    22.0550 C.3   1 SAM  -0.1525 
 13 HG1      8.0787    10.6687    22.7025 H     1 SAM   0.0800 
 14 HG2      8.2178    11.3576    21.0672 H     1 SAM   0.0800 
 15 SD       5.9530    11.5160    21.9100 S.3   1 SAM   0.9775 
 16 CE       5.5910     9.7360    22.0510 C.3   1 SAM  -0.2325 
 17 HE1      5.7757     9.4076    23.0738 H     1 SAM   0.0800 
 18 HE2      6.2338     9.1794    21.3690 H     1 SAM   0.0800 
 19 HE3      4.5470     9.5561    21.7945 H     1 SAM   0.0800 
 20 C5'      5.6020    11.8950    20.1830 C.3   1 SAM  -0.1525 
 21 H5'1     4.5283    11.8208    20.0102 H     1 SAM   0.0800 
 22 H5'2     6.1228    11.1804    19.5456 H     1 SAM   0.0800 
 23 C4'      6.0720    13.3140    19.8400 C.3   1 SAM   0.2000 
 24 H4'      7.0416    13.4661    20.3142 H     1 SAM   0.0800 
 25 O4'      6.1620    13.4590    18.4170 O.3   1 SAM  -0.5600 
 26 C3'      5.0780    14.3610    20.3490 C.3   1 SAM   0.2000 
 27 H3'      4.3546    13.9763    21.0679 H     1 SAM   0.0800 
 28 O3'      5.7950    15.3960    21.0220 O.3   1 SAM  -0.6800 
 29 H3'      5.1595    16.0658    21.2848 H     1 SAM   0.4000 
 30 C2'      4.3650    14.8660    19.0720 C.3   1 SAM   0.2000 
 31 H2'      3.4378    14.3494    18.8239 H     1 SAM   0.0800 
 32 O2'      3.9510    16.2350    19.2190 O.3   1 SAM  -0.6800 
 33 H2'      3.5735    16.5155    18.3821 H     1 SAM   0.4000 
 34 C1'      5.4630    14.6590    18.0030 C.3   1 SAM   0.5691 
 35 H1'      6.0572    15.5715    17.9541 H     1 SAM   0.0800 
 36 OXT     10.2540    12.4040    25.1270 O.co2 1 SAM  -0.9000 
 37 N1       6.4810    15.4270    13.0030 N.2   1 SAM  -0.6610 
 38 C2       7.1830    15.8380    14.0700 C.2   1 SAM   0.6010 
 39 H2       8.0925    16.4012    13.9220 H     1 SAM   0.0600 
 40 N3       6.7770    15.5630    15.3100 N.2   1 SAM  -0.6610 
 41 C4       5.6350    14.8560    15.5290 C.2   1 SAM   0.5000 
 42 C5       4.8590    14.4080    14.4320 C.2   1 SAM   0.4500 
 43 C6       5.3330    14.7170    13.1290 C.2   1 SAM   0.6110 
 44 N6       4.6290    14.3050    12.0130 N.2   1 SAM  -0.2000 
 45 H62      4.9713    14.5279    11.0893 H     1 SAM   0.4000 
 46 H61      3.7723    13.7811    12.1213 H     1 SAM   0.4000 
 47 N7       3.7930    13.7390    14.9370 N.2   1 SAM  -0.6960 
 48 C8       3.8600    13.7480    16.2370 C.3   1 SAM   0.4551 
 49 H81      3.9052    12.7226    16.6038 H     1 SAM   0.0800 
 50 H82      2.9752    14.2398    16.6412 H     1 SAM   0.0800 
 51 N9       4.9840    14.4270    16.6420 N.pl3 1 SAM  -0.7882 
@<TRIPOS>BOND
  1   1   2  1   
  2   1   3  1   
  3   1   4  1   
  4   1   5  1   
  5   5   6  1   
  6   5   7  1   
  7   5   9  1   
  8   7   8  ar  
  9   7  36  ar  
 10   9  10  1   
 11   9  11  1   
 12   9  12  1   
 13  12  13  1   
 14  12  14  1   
 15  12  15  1   
 16  15  16  1   
 17  15  20  1   
 18  16  17  1   
 19  16  18  1   
 20  16  19  1   
 21  20  21  1   
 22  20  22  1   
 23  20  23  1   
 24  23  24  1   
 25  23  25  1   
 26  23  26  1   
 27  25  34  1   
 28  26  27  1   
 29  26  28  1   
 30  26  30  1   
 31  28  29  1   
 32  30  31  1   
 33  30  32  1   
 34  30  34  1   
 35  32  33  1   
 36  34  35  1   
 37  34  51  1   
 38  37  38  2   
 39  37  43  1   
 40  38  39  1   
 41  38  40  1   
 42  40  41  2   
 43  41  42  1   
 44  41  51  1   
 45  42  43  1   
 46  42  47  2   
 47  43  44  2   
 48  44  45  1   
 49  44  46  1   
 50  47  48  1   
 51  48  49  1   
 52  48  50  1   
 53  48  51  1   
@<TRIPOS>SUBSTRUCTURE
  1 SAM  25 GROUP 4 A **** 0

# MOE 2022.02 (io_trps.svl 2020.11)
