# created with PyMOL 2.4.0
@<TRIPOS>MOLECULE
temp
50 52 1                 
SMALL
USER_CHARGES
@<TRIPOS>ATOM
1	   N	10.466	12.431	21.579	N.4	1	SAM1	0.000	
2	  CA	9.804	12.863	22.827	C.3	1	SAM1	0.000	
3	   C	10.232	11.970	23.981	C.2	1	SAM1	0.000	
4	   O	10.553	10.821	23.770	O.co2	1	SAM1	0.000	
5	  CB	8.266	12.827	22.659	C.3	1	SAM1	0.000	
6	  CG	7.777	11.492	22.055	C.3	1	SAM1	0.000	
7	  SD	5.953	11.516	21.910	S.3	1	SAM1	0.000	
8	  CE	5.591	9.736	22.051	C.3	1	SAM1	0.000	
9	 C5'	5.602	11.895	20.183	C.3	1	SAM1	0.000	
10	 C4'	6.072	13.314	19.840	C.3	1	SAM1	0.000	
11	 O4'	6.162	13.459	18.417	O.3	1	SAM1	0.000	
12	 C3'	5.078	14.361	20.349	C.3	1	SAM1	0.000	
13	 O3'	5.795	15.396	21.022	O.3	1	SAM1	0.000	
14	 C2'	4.365	14.866	19.072	C.3	1	SAM1	0.000	
15	 O2'	3.951	16.235	19.219	O.3	1	SAM1	0.000	
16	 C1'	5.463	14.659	18.003	C.3	1	SAM1	0.000	
17	 OXT	10.254	12.404	25.127	O.co2	1	SAM1	0.000	
18	  N1	6.481	15.427	13.003	N.2	1	SAM1	0.000	
19	  C2	7.183	15.838	14.070	C.2	1	SAM1	0.000	
20	  N3	6.777	15.563	15.310	N.2	1	SAM1	0.000	
21	  C4	5.635	14.856	15.529	C.2	1	SAM1	0.000	
22	  C5	4.859	14.408	14.432	C.2	1	SAM1	0.000	
23	  C6	5.333	14.717	13.129	C.2	1	SAM1	0.000	
24	  N6	4.629	14.305	12.013	N.pl3	1	SAM1	0.000	
25	  N7	3.793	13.739	14.937	N.2	1	SAM1	0.000	
26	  C8	3.860	13.748	16.237	C.2	1	SAM1	0.000	
27	  N9	4.984	14.427	16.642	N.2	1	SAM1	0.000	
28	  HA	10.104	13.887	23.048	 H	1	SAM1	0.000	
29	 HB1	7.965	13.642	22.000	 H	1	SAM1	0.000	
30	 HB2	7.803	12.961	23.636	 H	1	SAM1	0.000	
31	 HG1	8.079	10.669	22.702	 H	1	SAM1	0.000	
32	 HG2	8.218	11.358	21.067	 H	1	SAM1	0.000	
33	 HE1	5.776	9.408	23.074	 H	1	SAM1	0.000	
34	 HE2	6.234	9.179	21.369	 H	1	SAM1	0.000	
35	 HE3	4.547	9.556	21.795	 H	1	SAM1	0.000	
36	  H1	10.195	11.482	21.365	 H	1	SAM1	0.000	
37	  H2	11.468	12.476	21.696	 H	1	SAM1	0.000	
38	  H2	8.092	16.401	13.922	 H	1	SAM1	0.000	
39	  H3	10.188	13.039	20.822	 H	1	SAM1	0.000	
40	  H8	3.140	13.290	16.899	 H	1	SAM1	0.000	
41	 H1'	6.057	15.571	17.954	 H	1	SAM1	0.000	
42	 H2'	3.438	14.349	18.824	 H	1	SAM1	0.000	
43	 H2'	3.300	16.267	19.924	 H	1	SAM1	0.000	
44	 H3'	4.355	13.976	21.068	 H	1	SAM1	0.000	
45	 H3'	5.160	16.066	21.285	 H	1	SAM1	0.000	
46	 H4'	7.042	13.466	20.314	 H	1	SAM1	0.000	
47	 H61	3.772	13.781	12.121	 H	1	SAM1	0.000	
48	 H62	4.971	14.528	11.089	 H	1	SAM1	0.000	
49	H5'1	4.528	11.821	20.010	 H	1	SAM1	0.000	
50	H5'2	6.123	11.180	19.546	 H	1	SAM1	0.000	
@<TRIPOS>BOND
1 1 2 1
2 1 36 1
3 1 37 1
4 1 39 1
5 2 3 1
6 2 5 1
7 2 28 1
8 3 4 ar
9 3 17 ar
10 5 6 1
11 5 29 1
12 5 30 1
13 6 7 1
14 6 31 1
15 6 32 1
16 7 8 1
17 7 9 1
18 8 33 1
19 8 34 1
20 8 35 1
21 9 10 1
22 9 49 1
23 9 50 1
24 10 11 1
25 10 12 1
26 10 46 1
27 11 16 1
28 12 13 1
29 12 14 1
30 12 44 1
31 13 45 1
32 14 15 1
33 14 16 1
34 14 42 1
35 15 43 1
36 16 27 1
37 16 41 1
38 18 19 ar
39 18 23 ar
40 19 20 ar
41 19 38 1
42 20 21 ar
43 21 22 ar
44 21 27 ar
45 22 23 ar
46 22 25 ar
47 23 24 1
48 24 47 1
49 24 48 1
50 25 26 ar
51 26 27 ar
52 26 40 1
@<TRIPOS>SUBSTRUCTURE
1	SAM1	1	GROUP	1 A	SAM
