# created with PyMOL 2.5.0
@<TRIPOS>MOLECULE
4QDJ
27 29 1                 
SMALL
USER_CHARGES
@<TRIPOS>ATOM
1	   N	19.985	1.831	2.617	N.3	1	SAM301	0.000	
2	  CA	18.973	1.775	3.669	C.3	1	SAM301	0.000	
3	   C	18.936	3.079	4.454	C.2	1	SAM301	0.000	
4	   O	19.934	3.797	4.531	O.co2	1	SAM301	0.000	
5	  CB	19.172	0.580	4.603	C.3	1	SAM301	0.000	
6	  CG	20.506	0.490	5.342	C.3	1	SAM301	0.000	
7	  SD	20.560	-0.926	6.479	S.3	1	SAM301	0.000	
8	  CE	21.906	-0.453	7.593	C.3	1	SAM301	0.000	
9	 C5'	21.427	-2.137	5.459	C.3	1	SAM301	0.000	
10	 C4'	20.481	-2.846	4.502	C.3	1	SAM301	0.000	
11	 O4'	21.237	-3.389	3.441	O.3	1	SAM301	0.000	
12	 C3'	19.728	-4.000	5.151	C.3	1	SAM301	0.000	
13	 O3'	18.348	-3.832	4.925	O.3	1	SAM301	0.000	
14	 C2'	20.216	-5.232	4.415	C.3	1	SAM301	0.000	
15	 O2'	19.193	-6.187	4.237	O.3	1	SAM301	0.000	
16	 C1'	20.690	-4.640	3.099	C.3	1	SAM301	0.000	
17	 OXT	17.906	3.442	5.023	O.co2	1	SAM301	0.000	
18	  N1	22.059	-6.701	-1.468	N.2	1	SAM301	0.000	
19	  C2	20.962	-5.915	-1.179	C.2	1	SAM301	0.000	
20	  N3	20.760	-5.457	0.106	N.2	1	SAM301	0.000	
21	  C4	21.648	-5.774	1.079	C.2	1	SAM301	0.000	
22	  C5	22.756	-6.559	0.809	C.2	1	SAM301	0.000	
23	  C6	22.963	-7.026	-0.480	C.2	1	SAM301	0.000	
24	  N6	24.021	-7.784	-0.758	N.pl3	1	SAM301	0.000	
25	  N7	23.451	-6.710	1.959	N.2	1	SAM301	0.000	
26	  C8	22.809	-6.042	2.945	C.2	1	SAM301	0.000	
27	  N9	21.691	-5.463	2.409	N.2	1	SAM301	0.000	
@<TRIPOS>BOND
1 1 2 1
2 2 3 1
3 2 5 1
4 3 4 ar
5 3 17 ar
6 5 6 1
7 6 7 1
8 7 8 1
9 7 9 1
10 9 10 1
11 10 11 1
12 10 12 1
13 11 16 1
14 12 13 1
15 12 14 1
16 14 15 1
17 14 16 1
18 16 27 1
19 18 19 ar
20 18 23 ar
21 19 20 ar
22 20 21 ar
23 21 22 ar
24 21 27 ar
25 22 23 ar
26 22 25 ar
27 23 24 1
28 25 26 ar
29 26 27 ar
@<TRIPOS>SUBSTRUCTURE
1	SAM301	1	GROUP	1 A	SAM
