@<TRIPOS>MOLECULE
4QDJ.A
51 53 1 0 0 
SMALL
USER_CHARGES


@<TRIPOS>ATOM
  1 N       19.9850     1.8310     2.6170 N.4   1 SAM  -0.8530 
  2 H1      20.8965     1.9580     3.0331 H     1 SAM   0.4500 
  3 H2      19.7861     2.6049     1.9993 H     1 SAM   0.4500 
  4 H3      19.9721     0.9687     2.0912 H     1 SAM   0.4500 
  5 CA      18.9730     1.7750     3.6690 C.3   1 SAM   0.3170 
  6 HA      18.0091     1.6379     3.1789 H     1 SAM   0.0800 
  7 C       18.9360     3.0790     4.4540 C.2   1 SAM   0.9060 
  8 O       19.9340     3.7970     4.5310 O.co2 1 SAM  -0.9000 
  9 CB      19.1720     0.5800     4.6030 C.3   1 SAM  -0.1600 
 10 HB1     19.0658    -0.3253     4.0054 H     1 SAM   0.0800 
 11 HB2     18.3823     0.6146     5.3536 H     1 SAM   0.0800 
 12 CG      20.5060     0.4900     5.3420 C.3   1 SAM  -0.1525 
 13 HG1     20.6541     1.4062     5.9136 H     1 SAM   0.0800 
 14 HG2     21.3072     0.3847     4.6105 H     1 SAM   0.0800 
 15 SD      20.5600    -0.9260     6.4790 S.3   1 SAM   0.9775 
 16 CE      21.9060    -0.4530     7.5930 C.3   1 SAM  -0.2325 
 17 HE1     21.5471     0.2959     8.2990 H     1 SAM   0.0800 
 18 HE2     22.7301    -0.0391     7.0119 H     1 SAM   0.0800 
 19 HE3     22.2514    -1.3310     8.1389 H     1 SAM   0.0800 
 20 C5'     21.4270    -2.1370     5.4590 C.3   1 SAM  -0.1525 
 21 H5'1    21.8927    -2.8777     6.1090 H     1 SAM   0.0800 
 22 H5'2    22.1967    -1.6257     4.8809 H     1 SAM   0.0800 
 23 C4'     20.4810    -2.8460     4.5020 C.3   1 SAM   0.2000 
 24 H4'     19.7542    -2.1049     4.1693 H     1 SAM   0.0800 
 25 O4'     21.2370    -3.3890     3.4410 O.3   1 SAM  -0.5600 
 26 C3'     19.7280    -4.0000     5.1510 C.3   1 SAM   0.2000 
 27 H3'     19.8920    -4.0644     6.2267 H     1 SAM   0.0800 
 28 O3'     18.3480    -3.8320     4.9250 O.3   1 SAM  -0.6800 
 29 H3'     17.8981    -4.5945     5.2963 H     1 SAM   0.4000 
 30 C2'     20.2160    -5.2320     4.4150 C.3   1 SAM   0.2000 
 31 H2'     20.9892    -5.7849     4.9484 H     1 SAM   0.0800 
 32 O2'     19.1930    -6.1870     4.2370 O.3   1 SAM  -0.6800 
 33 H2'     18.4739    -5.7580     3.7676 H     1 SAM   0.4000 
 34 C1'     20.6900    -4.6400     3.0990 C.3   1 SAM   0.5691 
 35 H1'     19.8583    -4.5725     2.3977 H     1 SAM   0.0800 
 36 OXT     17.9060     3.4420     5.0230 O.co2 1 SAM  -0.9000 
 37 N1      22.0590    -6.7010    -1.4680 N.2   1 SAM  -0.6610 
 38 C2      20.9620    -5.9150    -1.1790 C.2   1 SAM   0.6010 
 39 H2      20.2613    -5.6584    -1.9597 H     1 SAM   0.0600 
 40 N3      20.7600    -5.4570     0.1060 N.2   1 SAM  -0.6610 
 41 C4      21.6480    -5.7740     1.0790 C.2   1 SAM   0.5000 
 42 C5      22.7560    -6.5590     0.8090 C.2   1 SAM   0.4500 
 43 C6      22.9630    -7.0260    -0.4800 C.2   1 SAM   0.6110 
 44 N6      24.0210    -7.7840    -0.7580 N.2   1 SAM  -0.2000 
 45 H62     24.1672    -8.1216    -1.6986 H     1 SAM   0.4000 
 46 H61     24.6777    -8.0216    -0.0284 H     1 SAM   0.4000 
 47 N7      23.4510    -6.7100     1.9590 N.2   1 SAM  -0.6960 
 48 C8      22.8090    -6.0420     2.9450 C.3   1 SAM   0.4551 
 49 H81     23.4625    -5.2725     3.3560 H     1 SAM   0.0800 
 50 H82     22.5228    -6.7358     3.7355 H     1 SAM   0.0800 
 51 N9      21.6910    -5.4630     2.4090 N.pl3 1 SAM  -0.7882 
@<TRIPOS>BOND
  1   1   2  1   
  2   1   3  1   
  3   1   4  1   
  4   1   5  1   
  5   5   6  1   
  6   5   7  1   
  7   5   9  1   
  8   7   8  ar  
  9   7  36  ar  
 10   9  10  1   
 11   9  11  1   
 12   9  12  1   
 13  12  13  1   
 14  12  14  1   
 15  12  15  1   
 16  15  16  1   
 17  15  20  1   
 18  16  17  1   
 19  16  18  1   
 20  16  19  1   
 21  20  21  1   
 22  20  22  1   
 23  20  23  1   
 24  23  24  1   
 25  23  25  1   
 26  23  26  1   
 27  25  34  1   
 28  26  27  1   
 29  26  28  1   
 30  26  30  1   
 31  28  29  1   
 32  30  31  1   
 33  30  32  1   
 34  30  34  1   
 35  32  33  1   
 36  34  35  1   
 37  34  51  1   
 38  37  38  2   
 39  37  43  1   
 40  38  39  1   
 41  38  40  1   
 42  40  41  2   
 43  41  42  1   
 44  41  51  1   
 45  42  43  1   
 46  42  47  2   
 47  43  44  2   
 48  44  45  1   
 49  44  46  1   
 50  47  48  1   
 51  48  49  1   
 52  48  50  1   
 53  48  51  1   
@<TRIPOS>SUBSTRUCTURE
  1 SAM  25 GROUP 4 A **** 0

# MOE 2022.02 (io_trps.svl 2020.11)
