# created with PyMOL 2.4.0
@<TRIPOS>MOLECULE
temp
50 52 1                 
SMALL
USER_CHARGES
@<TRIPOS>ATOM
1	   N	19.985	1.831	2.617	N.4	1	SAM1	0.000	
2	  CA	18.973	1.775	3.669	C.3	1	SAM1	0.000	
3	   C	18.936	3.079	4.454	C.2	1	SAM1	0.000	
4	   O	19.934	3.797	4.531	O.co2	1	SAM1	0.000	
5	  CB	19.172	0.580	4.603	C.3	1	SAM1	0.000	
6	  CG	20.506	0.490	5.342	C.3	1	SAM1	0.000	
7	  SD	20.560	-0.926	6.479	S.3	1	SAM1	0.000	
8	  CE	21.906	-0.453	7.593	C.3	1	SAM1	0.000	
9	 C5'	21.427	-2.137	5.459	C.3	1	SAM1	0.000	
10	 C4'	20.481	-2.846	4.502	C.3	1	SAM1	0.000	
11	 O4'	21.237	-3.389	3.441	O.3	1	SAM1	0.000	
12	 C3'	19.728	-4.000	5.151	C.3	1	SAM1	0.000	
13	 O3'	18.348	-3.832	4.925	O.3	1	SAM1	0.000	
14	 C2'	20.216	-5.232	4.415	C.3	1	SAM1	0.000	
15	 O2'	19.193	-6.187	4.237	O.3	1	SAM1	0.000	
16	 C1'	20.690	-4.640	3.099	C.3	1	SAM1	0.000	
17	 OXT	17.906	3.442	5.023	O.co2	1	SAM1	0.000	
18	  N1	22.059	-6.701	-1.468	N.2	1	SAM1	0.000	
19	  C2	20.962	-5.915	-1.179	C.2	1	SAM1	0.000	
20	  N3	20.760	-5.457	0.106	N.2	1	SAM1	0.000	
21	  C4	21.648	-5.774	1.079	C.2	1	SAM1	0.000	
22	  C5	22.756	-6.559	0.809	C.2	1	SAM1	0.000	
23	  C6	22.963	-7.026	-0.480	C.2	1	SAM1	0.000	
24	  N6	24.021	-7.784	-0.758	N.pl3	1	SAM1	0.000	
25	  N7	23.451	-6.710	1.959	N.2	1	SAM1	0.000	
26	  C8	22.809	-6.042	2.945	C.2	1	SAM1	0.000	
27	  N9	21.691	-5.463	2.409	N.2	1	SAM1	0.000	
28	  HA	18.009	1.638	3.179	 H	1	SAM1	0.000	
29	 HB1	19.066	-0.325	4.005	 H	1	SAM1	0.000	
30	 HB2	18.382	0.615	5.354	 H	1	SAM1	0.000	
31	 HG1	20.654	1.406	5.914	 H	1	SAM1	0.000	
32	 HG2	21.307	0.385	4.610	 H	1	SAM1	0.000	
33	 HE1	21.547	0.296	8.299	 H	1	SAM1	0.000	
34	 HE2	22.730	-0.039	7.012	 H	1	SAM1	0.000	
35	 HE3	22.251	-1.331	8.139	 H	1	SAM1	0.000	
36	  H1	20.896	1.958	3.033	 H	1	SAM1	0.000	
37	  H2	19.786	2.605	1.999	 H	1	SAM1	0.000	
38	  H2	20.261	-5.658	-1.960	 H	1	SAM1	0.000	
39	  H3	19.972	0.969	2.091	 H	1	SAM1	0.000	
40	  H8	23.124	-5.977	3.976	 H	1	SAM1	0.000	
41	 H1'	19.858	-4.573	2.398	 H	1	SAM1	0.000	
42	 H2'	20.989	-5.785	4.948	 H	1	SAM1	0.000	
43	 H2'	18.915	-6.480	5.108	 H	1	SAM1	0.000	
44	 H3'	19.892	-4.064	6.227	 H	1	SAM1	0.000	
45	 H3'	17.898	-4.595	5.296	 H	1	SAM1	0.000	
46	 H4'	19.754	-2.105	4.169	 H	1	SAM1	0.000	
47	 H61	24.678	-8.022	-0.028	 H	1	SAM1	0.000	
48	 H62	24.167	-8.122	-1.699	 H	1	SAM1	0.000	
49	H5'1	21.893	-2.878	6.109	 H	1	SAM1	0.000	
50	H5'2	22.197	-1.626	4.881	 H	1	SAM1	0.000	
@<TRIPOS>BOND
1 1 2 1
2 1 36 1
3 1 37 1
4 1 39 1
5 2 3 1
6 2 5 1
7 2 28 1
8 3 4 ar
9 3 17 ar
10 5 6 1
11 5 29 1
12 5 30 1
13 6 7 1
14 6 31 1
15 6 32 1
16 7 8 1
17 7 9 1
18 8 33 1
19 8 34 1
20 8 35 1
21 9 10 1
22 9 49 1
23 9 50 1
24 10 11 1
25 10 12 1
26 10 46 1
27 11 16 1
28 12 13 1
29 12 14 1
30 12 44 1
31 13 45 1
32 14 15 1
33 14 16 1
34 14 42 1
35 15 43 1
36 16 27 1
37 16 41 1
38 18 19 ar
39 18 23 ar
40 19 20 ar
41 19 38 1
42 20 21 ar
43 21 22 ar
44 21 27 ar
45 22 23 ar
46 22 25 ar
47 23 24 1
48 24 47 1
49 24 48 1
50 25 26 ar
51 26 27 ar
52 26 40 1
@<TRIPOS>SUBSTRUCTURE
1	SAM1	1	GROUP	1 A	SAM
