# created with PyMOL 2.4.0
@<TRIPOS>MOLECULE
temp
50 52 1                 
SMALL
USER_CHARGES
@<TRIPOS>ATOM
1	   N	0.778	40.744	12.800	N.4	1	SAM1	0.000	
2	  CA	-0.506	40.525	12.059	C.3	1	SAM1	0.000	
3	   C	-1.009	41.872	11.545	C.2	1	SAM1	0.000	
4	   O	-0.357	42.885	11.844	O.co2	1	SAM1	0.000	
5	  CB	-1.561	39.888	12.987	C.3	1	SAM1	0.000	
6	  CG	-1.289	38.409	13.226	C.3	1	SAM1	0.000	
7	  SD	-2.512	37.548	14.253	S.3	1	SAM1	0.000	
8	  CE	-1.962	38.089	15.933	C.3	1	SAM1	0.000	
9	 C5'	-1.842	35.897	14.258	C.3	1	SAM1	0.000	
10	 C4'	-1.970	35.111	12.979	C.3	1	SAM1	0.000	
11	 O4'	-1.178	33.912	13.086	O.3	1	SAM1	0.000	
12	 C3'	-3.386	34.622	12.651	C.3	1	SAM1	0.000	
13	 O3'	-3.718	35.423	11.484	O.3	1	SAM1	0.000	
14	 C2'	-3.190	33.185	12.157	C.3	1	SAM1	0.000	
15	 O2'	-3.945	32.676	11.071	O.3	1	SAM1	0.000	
16	 C1'	-1.671	33.015	12.126	C.3	1	SAM1	0.000	
17	 OXT	-2.065	41.893	10.873	O.co2	1	SAM1	0.000	
18	  N1	0.761	29.063	9.990	N.2	1	SAM1	0.000	
19	  C2	0.565	30.337	9.591	C.2	1	SAM1	0.000	
20	  N3	-0.045	31.331	10.237	N.2	1	SAM1	0.000	
21	  C4	-0.483	30.924	11.439	C.2	1	SAM1	0.000	
22	  C5	-0.346	29.664	11.989	C.2	1	SAM1	0.000	
23	  C6	0.293	28.685	11.195	C.2	1	SAM1	0.000	
24	  N6	0.432	27.398	11.561	N.pl3	1	SAM1	0.000	
25	  N7	-0.901	29.622	13.256	N.2	1	SAM1	0.000	
26	  C8	-1.374	30.826	13.439	C.2	1	SAM1	0.000	
27	  N9	-1.186	31.662	12.360	N.2	1	SAM1	0.000	
28	  HA	-0.334	39.847	11.223	 H	1	SAM1	0.000	
29	 HB1	-2.544	39.996	12.529	 H	1	SAM1	0.000	
30	 HB2	-1.548	40.408	13.945	 H	1	SAM1	0.000	
31	 HG1	-0.318	38.320	13.714	 H	1	SAM1	0.000	
32	 HG2	-1.255	37.912	12.256	 H	1	SAM1	0.000	
33	 HE1	-2.294	39.112	16.112	 H	1	SAM1	0.000	
34	 HE2	-0.874	38.044	15.991	 H	1	SAM1	0.000	
35	 HE3	-2.394	37.430	16.686	 H	1	SAM1	0.000	
36	  H1	0.617	41.372	13.574	 H	1	SAM1	0.000	
37	  H2	1.462	41.147	12.176	 H	1	SAM1	0.000	
38	  H2	0.956	30.585	8.615	 H	1	SAM1	0.000	
39	  H3	1.120	39.860	13.149	 H	1	SAM1	0.000	
40	  H8	-1.865	31.136	14.349	 H	1	SAM1	0.000	
41	 H1'	-1.311	33.223	11.118	 H	1	SAM1	0.000	
42	 H2'	-3.682	32.495	12.842	 H	1	SAM1	0.000	
43	 H2'	-3.680	33.156	10.283	 H	1	SAM1	0.000	
44	 H3'	-4.115	34.682	13.459	 H	1	SAM1	0.000	
45	 H3'	-4.561	35.110	11.148	 H	1	SAM1	0.000	
46	 H4'	-1.653	35.803	12.199	 H	1	SAM1	0.000	
47	 H61	0.069	27.083	12.449	 H	1	SAM1	0.000	
48	 H62	0.900	26.746	10.947	 H	1	SAM1	0.000	
49	H5'1	-2.351	35.336	15.042	 H	1	SAM1	0.000	
50	H5'2	-0.781	35.972	14.495	 H	1	SAM1	0.000	
@<TRIPOS>BOND
1 1 2 1
2 1 36 1
3 1 37 1
4 1 39 1
5 2 3 1
6 2 5 1
7 2 28 1
8 3 4 ar
9 3 17 ar
10 5 6 1
11 5 29 1
12 5 30 1
13 6 7 1
14 6 31 1
15 6 32 1
16 7 8 1
17 7 9 1
18 8 33 1
19 8 34 1
20 8 35 1
21 9 10 1
22 9 49 1
23 9 50 1
24 10 11 1
25 10 12 1
26 10 46 1
27 11 16 1
28 12 13 1
29 12 14 1
30 12 44 1
31 13 45 1
32 14 15 1
33 14 16 1
34 14 42 1
35 15 43 1
36 16 27 1
37 16 41 1
38 18 19 ar
39 18 23 ar
40 19 20 ar
41 19 38 1
42 20 21 ar
43 21 22 ar
44 21 27 ar
45 22 23 ar
46 22 25 ar
47 23 24 1
48 24 47 1
49 24 48 1
50 25 26 ar
51 26 27 ar
52 26 40 1
@<TRIPOS>SUBSTRUCTURE
1	SAM1	1	GROUP	1 A	SAM
