# created with PyMOL 2.5.0
@<TRIPOS>MOLECULE
1EIZ
27 29 1                 
SMALL
USER_CHARGES
@<TRIPOS>ATOM
1	   N	0.778	40.744	12.800	N.3	1	SAM301	0.000	
2	  CA	-0.506	40.525	12.059	C.3	1	SAM301	0.000	
3	   C	-1.009	41.872	11.545	C.2	1	SAM301	0.000	
4	   O	-0.357	42.885	11.844	O.co2	1	SAM301	0.000	
5	  CB	-1.561	39.888	12.987	C.3	1	SAM301	0.000	
6	  CG	-1.289	38.409	13.226	C.3	1	SAM301	0.000	
7	  SD	-2.512	37.548	14.253	S.3	1	SAM301	0.000	
8	  CE	-1.962	38.089	15.933	C.3	1	SAM301	0.000	
9	 C5'	-1.842	35.897	14.258	C.3	1	SAM301	0.000	
10	 C4'	-1.970	35.111	12.979	C.3	1	SAM301	0.000	
11	 O4'	-1.178	33.912	13.086	O.3	1	SAM301	0.000	
12	 C3'	-3.386	34.622	12.651	C.3	1	SAM301	0.000	
13	 O3'	-3.718	35.423	11.484	O.3	1	SAM301	0.000	
14	 C2'	-3.190	33.185	12.157	C.3	1	SAM301	0.000	
15	 O2'	-3.945	32.676	11.071	O.3	1	SAM301	0.000	
16	 C1'	-1.671	33.015	12.126	C.3	1	SAM301	0.000	
17	 OXT	-2.065	41.893	10.873	O.co2	1	SAM301	0.000	
18	  N1	0.761	29.063	9.990	N.2	1	SAM301	0.000	
19	  C2	0.565	30.337	9.591	C.2	1	SAM301	0.000	
20	  N3	-0.045	31.331	10.237	N.2	1	SAM301	0.000	
21	  C4	-0.483	30.924	11.439	C.2	1	SAM301	0.000	
22	  C5	-0.346	29.664	11.989	C.2	1	SAM301	0.000	
23	  C6	0.293	28.685	11.195	C.2	1	SAM301	0.000	
24	  N6	0.432	27.398	11.561	N.pl3	1	SAM301	0.000	
25	  N7	-0.901	29.622	13.256	N.2	1	SAM301	0.000	
26	  C8	-1.374	30.826	13.439	C.2	1	SAM301	0.000	
27	  N9	-1.186	31.662	12.360	N.2	1	SAM301	0.000	
@<TRIPOS>BOND
1 1 2 1
2 2 3 1
3 2 5 1
4 3 4 ar
5 3 17 ar
6 5 6 1
7 6 7 1
8 7 8 1
9 7 9 1
10 9 10 1
11 10 11 1
12 10 12 1
13 11 16 1
14 12 13 1
15 12 14 1
16 14 15 1
17 14 16 1
18 16 27 1
19 18 19 ar
20 18 23 ar
21 19 20 ar
22 20 21 ar
23 21 22 ar
24 21 27 ar
25 22 23 ar
26 22 25 ar
27 23 24 1
28 25 26 ar
29 26 27 ar
@<TRIPOS>SUBSTRUCTURE
1	SAM301	1	GROUP	1 A	SAM
