@<TRIPOS>MOLECULE
1EIZ.A
51 53 1 0 0 
SMALL
USER_CHARGES


@<TRIPOS>ATOM
  1 N        0.7780    40.7440    12.8000 N.4   1 SAM  -0.8530 
  2 H1       0.6169    41.3720    13.5744 H     1 SAM   0.4500 
  3 H2       1.4622    41.1475    12.1761 H     1 SAM   0.4500 
  4 H3       1.1204    39.8602    13.1489 H     1 SAM   0.4500 
  5 CA      -0.5060    40.5250    12.0590 C.3   1 SAM   0.3170 
  6 HA      -0.3337    39.8474    11.2228 H     1 SAM   0.0800 
  7 C       -1.0090    41.8720    11.5450 C.2   1 SAM   0.9060 
  8 O       -0.3570    42.8850    11.8440 O.co2 1 SAM  -0.9000 
  9 CB      -1.5610    39.8880    12.9870 C.3   1 SAM  -0.1600 
 10 HB1     -2.5442    39.9958    12.5289 H     1 SAM   0.0800 
 11 HB2     -1.5475    40.4080    13.9449 H     1 SAM   0.0800 
 12 CG      -1.2890    38.4090    13.2260 C.3   1 SAM  -0.1525 
 13 HG1     -0.3183    38.3203    13.7138 H     1 SAM   0.0800 
 14 HG2     -1.2551    37.9125    12.2563 H     1 SAM   0.0800 
 15 SD      -2.5120    37.5480    14.2530 S.3   1 SAM   0.9775 
 16 CE      -1.9620    38.0890    15.9330 C.3   1 SAM  -0.2325 
 17 HE1     -2.2937    39.1118    16.1120 H     1 SAM   0.0800 
 18 HE2     -0.8745    38.0443    15.9912 H     1 SAM   0.0800 
 19 HE3     -2.3935    37.4299    16.6863 H     1 SAM   0.0800 
 20 C5'     -1.8420    35.8970    14.2580 C.3   1 SAM  -0.1525 
 21 H5'1    -2.3506    35.3365    15.0424 H     1 SAM   0.0800 
 22 H5'2    -0.7807    35.9720    14.4948 H     1 SAM   0.0800 
 23 C4'     -1.9700    35.1110    12.9790 C.3   1 SAM   0.2000 
 24 H4'     -1.6525    35.8030    12.1990 H     1 SAM   0.0800 
 25 O4'     -1.1780    33.9120    13.0860 O.3   1 SAM  -0.5600 
 26 C3'     -3.3860    34.6220    12.6510 C.3   1 SAM   0.2000 
 27 H3'     -4.1154    34.6824    13.4587 H     1 SAM   0.0800 
 28 O3'     -3.7180    35.4230    11.4840 O.3   1 SAM  -0.6800 
 29 H3'     -4.5610    35.1103    11.1476 H     1 SAM   0.4000 
 30 C2'     -3.1900    33.1850    12.1570 C.3   1 SAM   0.2000 
 31 H2'     -3.6816    32.4946    12.8424 H     1 SAM   0.0800 
 32 O2'     -3.9450    32.6760    11.0710 O.3   1 SAM  -0.6800 
 33 H2'     -3.6800    33.1560    10.2830 H     1 SAM   0.4000 
 34 C1'     -1.6710    33.0150    12.1260 C.3   1 SAM   0.5691 
 35 H1'     -1.3109    33.2231    11.1185 H     1 SAM   0.0800 
 36 OXT     -2.0650    41.8930    10.8730 O.co2 1 SAM  -0.9000 
 37 N1       0.7610    29.0630     9.9900 N.2   1 SAM  -0.6610 
 38 C2       0.5650    30.3370     9.5910 C.2   1 SAM   0.6010 
 39 H2       0.9556    30.5854     8.6152 H     1 SAM   0.0600 
 40 N3      -0.0450    31.3310    10.2370 N.2   1 SAM  -0.6610 
 41 C4      -0.4830    30.9240    11.4390 C.2   1 SAM   0.5000 
 42 C5      -0.3460    29.6640    11.9890 C.2   1 SAM   0.4500 
 43 C6       0.2930    28.6850    11.1950 C.2   1 SAM   0.6110 
 44 N6       0.4320    27.3980    11.5610 N.2   1 SAM  -0.2000 
 45 H62      0.8997    26.7462    10.9474 H     1 SAM   0.4000 
 46 H61      0.0687    27.0835    12.4494 H     1 SAM   0.4000 
 47 N7      -0.9010    29.6220    13.2560 N.2   1 SAM  -0.6960 
 48 C8      -1.3740    30.8260    13.4390 C.3   1 SAM   0.4551 
 49 H81     -0.8771    31.2636    14.3048 H     1 SAM   0.0800 
 50 H82     -2.4437    30.7501    13.6340 H     1 SAM   0.0800 
 51 N9      -1.1860    31.6620    12.3600 N.pl3 1 SAM  -0.7882 
@<TRIPOS>BOND
  1   1   2  1   
  2   1   3  1   
  3   1   4  1   
  4   1   5  1   
  5   5   6  1   
  6   5   7  1   
  7   5   9  1   
  8   7   8  ar  
  9   7  36  ar  
 10   9  10  1   
 11   9  11  1   
 12   9  12  1   
 13  12  13  1   
 14  12  14  1   
 15  12  15  1   
 16  15  16  1   
 17  15  20  1   
 18  16  17  1   
 19  16  18  1   
 20  16  19  1   
 21  20  21  1   
 22  20  22  1   
 23  20  23  1   
 24  23  24  1   
 25  23  25  1   
 26  23  26  1   
 27  25  34  1   
 28  26  27  1   
 29  26  28  1   
 30  26  30  1   
 31  28  29  1   
 32  30  31  1   
 33  30  32  1   
 34  30  34  1   
 35  32  33  1   
 36  34  35  1   
 37  34  51  1   
 38  37  38  2   
 39  37  43  1   
 40  38  39  1   
 41  38  40  1   
 42  40  41  2   
 43  41  42  1   
 44  41  51  1   
 45  42  43  1   
 46  42  47  2   
 47  43  44  2   
 48  44  45  1   
 49  44  46  1   
 50  47  48  1   
 51  48  49  1   
 52  48  50  1   
 53  48  51  1   
@<TRIPOS>SUBSTRUCTURE
  1 SAM  25 GROUP 4 A **** 0

# MOE 2022.02 (io_trps.svl 2020.11)
