# created with PyMOL 2.5.0
@<TRIPOS>MOLECULE
5UPD
27 29 1                 
SMALL
USER_CHARGES
@<TRIPOS>ATOM
1	   N	24.966	28.615	48.221	N.3	1	SAM1301	0.000	
2	  CA	25.786	29.355	47.224	C.3	1	SAM1301	0.000	
3	   C	25.600	30.878	47.339	C.2	1	SAM1301	0.000	
4	   O	25.026	31.320	48.334	O.co2	1	SAM1301	0.000	
5	  CB	25.427	28.820	45.818	C.3	1	SAM1301	0.000	
6	  CG	26.260	27.561	45.437	C.3	1	SAM1301	0.000	
7	  SD	27.940	27.857	45.279	S.3	1	SAM1301	0.000	
8	  CE	28.427	27.257	43.793	C.3	1	SAM1301	0.000	
9	 C5'	28.802	26.834	46.273	C.3	1	SAM1301	0.000	
10	 C4'	28.880	27.115	47.785	C.3	1	SAM1301	0.000	
11	 O4'	27.627	26.968	48.476	O.3	1	SAM1301	0.000	
12	 C3'	29.783	26.072	48.445	C.3	1	SAM1301	0.000	
13	 O3'	31.147	26.459	48.274	O.3	1	SAM1301	0.000	
14	 C2'	29.259	26.037	49.866	C.3	1	SAM1301	0.000	
15	 O2'	29.707	27.190	50.518	O.3	1	SAM1301	0.000	
16	 C1'	27.774	26.225	49.680	C.3	1	SAM1301	0.000	
17	 OXT	26.062	31.655	46.455	O.co2	1	SAM1301	0.000	
18	  N1	25.864	22.191	52.354	N.2	1	SAM1301	0.000	
19	  C2	26.553	23.281	52.792	C.2	1	SAM1301	0.000	
20	  N3	27.014	24.253	51.981	N.2	1	SAM1301	0.000	
21	  C4	26.727	24.186	50.628	C.2	1	SAM1301	0.000	
22	  C5	25.987	23.056	50.072	C.2	1	SAM1301	0.000	
23	  C6	25.565	22.050	51.040	C.2	1	SAM1301	0.000	
24	  N6	24.876	21.038	50.589	N.pl3	1	SAM1301	0.000	
25	  N7	25.864	23.208	48.701	N.2	1	SAM1301	0.000	
26	  C8	26.518	24.396	48.445	C.2	1	SAM1301	0.000	
27	  N9	27.015	24.941	49.568	N.2	1	SAM1301	0.000	
@<TRIPOS>BOND
1 1 2 1
2 2 3 1
3 2 5 1
4 3 4 ar
5 3 17 ar
6 5 6 1
7 6 7 1
8 7 8 1
9 7 9 1
10 9 10 1
11 10 11 1
12 10 12 1
13 11 16 1
14 12 13 1
15 12 14 1
16 14 15 1
17 14 16 1
18 16 27 1
19 18 19 ar
20 18 23 ar
21 19 20 ar
22 20 21 ar
23 21 22 ar
24 21 27 ar
25 22 23 ar
26 22 25 ar
27 23 24 1
28 25 26 ar
29 26 27 ar
@<TRIPOS>SUBSTRUCTURE
1	SAM1301	1	GROUP	1 A	SAM
