@<TRIPOS>MOLECULE
5UPD.A
51 53 1 0 0 
SMALL
USER_CHARGES


@<TRIPOS>ATOM
  1 N       24.9660    28.6150    48.2210 N.4   1 SAM  -0.8530 
  2 H1      23.9861    28.7775    48.0381 H     1 SAM   0.4500 
  3 H2      25.1932    28.9385    49.1504 H     1 SAM   0.4500 
  4 H3      25.1621    27.6267    48.1512 H     1 SAM   0.4500 
  5 CA      25.7860    29.3550    47.2240 C.3   1 SAM   0.3170 
  6 HA      26.8450    29.1833    47.4165 H     1 SAM   0.0800 
  7 C       25.6000    30.8780    47.3390 C.2   1 SAM   0.9060 
  8 O       25.0260    31.3200    48.3340 O.co2 1 SAM  -0.9000 
  9 CB      25.4270    28.8200    45.8180 C.3   1 SAM  -0.1600 
 10 HB1     25.6194    29.6032    45.0848 H     1 SAM   0.0800 
 11 HB2     24.3689    28.5589    45.8015 H     1 SAM   0.0800 
 12 CG      26.2600    27.5610    45.4370 C.3   1 SAM  -0.1525 
 13 HG1     25.8885    27.1794    44.4860 H     1 SAM   0.0800 
 14 HG2     26.1163    26.8079    46.2117 H     1 SAM   0.0800 
 15 SD      27.9400    27.8570    45.2790 S.3   1 SAM   0.9775 
 16 CE      28.4270    27.2570    43.7930 C.3   1 SAM  -0.2325 
 17 HE1     27.9462    27.8250    42.9966 H     1 SAM   0.0800 
 18 HE2     28.1424    26.2078    43.7138 H     1 SAM   0.0800 
 19 HE3     29.5094    27.3477    43.7015 H     1 SAM   0.0800 
 20 C5'     28.8020    26.8340    46.2730 C.3   1 SAM  -0.1525 
 21 H5'1    29.8267    26.8238    45.9015 H     1 SAM   0.0800 
 22 H5'2    28.3644    25.8422    46.1594 H     1 SAM   0.0800 
 23 C4'     28.8800    27.1150    47.7850 C.3   1 SAM   0.2000 
 24 H4'     29.2325    28.1437    47.8595 H     1 SAM   0.0800 
 25 O4'     27.6270    26.9680    48.4760 O.3   1 SAM  -0.5600 
 26 C3'     29.7830    26.0720    48.4450 C.3   1 SAM   0.2000 
 27 H3'     29.7627    25.0657    48.0265 H     1 SAM   0.0800 
 28 O3'     31.1470    26.4590    48.2740 O.3   1 SAM  -0.6800 
 29 H3'     31.6894    25.8329    48.7592 H     1 SAM   0.4000 
 30 C2'     29.2590    26.0370    49.8660 C.3   1 SAM   0.2000 
 31 H2'     29.5521    25.1415    50.4140 H     1 SAM   0.0800 
 32 O2'     29.7070    27.1900    50.5180 O.3   1 SAM  -0.6800 
 33 H2'     30.6643    27.1408    50.5697 H     1 SAM   0.4000 
 34 C1'     27.7740    26.2250    49.6800 C.3   1 SAM   0.5691 
 35 H1'     27.3643    26.7300    50.5548 H     1 SAM   0.0800 
 36 OXT     26.0620    31.6550    46.4550 O.co2 1 SAM  -0.9000 
 37 N1      25.8640    22.1910    52.3540 N.2   1 SAM  -0.6610 
 38 C2      26.5530    23.2810    52.7920 C.2   1 SAM   0.6010 
 39 H2      26.7409    23.3715    53.8517 H     1 SAM   0.0600 
 40 N3      27.0140    24.2530    51.9810 N.2   1 SAM  -0.6610 
 41 C4      26.7270    24.1860    50.6280 C.2   1 SAM   0.5000 
 42 C5      25.9870    23.0560    50.0720 C.2   1 SAM   0.4500 
 43 C6      25.5650    22.0500    51.0400 C.2   1 SAM   0.6110 
 44 N6      24.8760    21.0380    50.5890 N.2   1 SAM  -0.2000 
 45 H62     24.5628    20.3174    51.2236 H     1 SAM   0.4000 
 46 H61     24.6558    20.9752    49.6053 H     1 SAM   0.4000 
 47 N7      25.8640    23.2080    48.7010 N.2   1 SAM  -0.6960 
 48 C8      26.5180    24.3960    48.4450 C.3   1 SAM   0.4551 
 49 H81     25.8151    25.0962    47.9935 H     1 SAM   0.0800 
 50 H82     27.3374    24.2060    47.7518 H     1 SAM   0.0800 
 51 N9      27.0150    24.9410    49.5680 N.pl3 1 SAM  -0.7882 
@<TRIPOS>BOND
  1   1   2  1   
  2   1   3  1   
  3   1   4  1   
  4   1   5  1   
  5   5   6  1   
  6   5   7  1   
  7   5   9  1   
  8   7   8  ar  
  9   7  36  ar  
 10   9  10  1   
 11   9  11  1   
 12   9  12  1   
 13  12  13  1   
 14  12  14  1   
 15  12  15  1   
 16  15  16  1   
 17  15  20  1   
 18  16  17  1   
 19  16  18  1   
 20  16  19  1   
 21  20  21  1   
 22  20  22  1   
 23  20  23  1   
 24  23  24  1   
 25  23  25  1   
 26  23  26  1   
 27  25  34  1   
 28  26  27  1   
 29  26  28  1   
 30  26  30  1   
 31  28  29  1   
 32  30  31  1   
 33  30  32  1   
 34  30  34  1   
 35  32  33  1   
 36  34  35  1   
 37  34  51  1   
 38  37  38  2   
 39  37  43  1   
 40  38  39  1   
 41  38  40  1   
 42  40  41  2   
 43  41  42  1   
 44  41  51  1   
 45  42  43  1   
 46  42  47  2   
 47  43  44  2   
 48  44  45  1   
 49  44  46  1   
 50  47  48  1   
 51  48  49  1   
 52  48  50  1   
 53  48  51  1   
@<TRIPOS>SUBSTRUCTURE
  1 SAM  25 GROUP 4 A **** 0

# MOE 2022.02 (io_trps.svl 2020.11)
