# created with PyMOL 2.4.0
@<TRIPOS>MOLECULE
temp
50 52 1                 
SMALL
USER_CHARGES
@<TRIPOS>ATOM
1	   N	24.966	28.615	48.221	N.4	1	SAM1	0.000	
2	  CA	25.786	29.355	47.224	C.3	1	SAM1	0.000	
3	   C	25.600	30.878	47.339	C.2	1	SAM1	0.000	
4	   O	25.026	31.320	48.334	O.co2	1	SAM1	0.000	
5	  CB	25.427	28.820	45.818	C.3	1	SAM1	0.000	
6	  CG	26.260	27.561	45.437	C.3	1	SAM1	0.000	
7	  SD	27.940	27.857	45.279	S.3	1	SAM1	0.000	
8	  CE	28.427	27.257	43.793	C.3	1	SAM1	0.000	
9	 C5'	28.802	26.834	46.273	C.3	1	SAM1	0.000	
10	 C4'	28.880	27.115	47.785	C.3	1	SAM1	0.000	
11	 O4'	27.627	26.968	48.476	O.3	1	SAM1	0.000	
12	 C3'	29.783	26.072	48.445	C.3	1	SAM1	0.000	
13	 O3'	31.147	26.459	48.274	O.3	1	SAM1	0.000	
14	 C2'	29.259	26.037	49.866	C.3	1	SAM1	0.000	
15	 O2'	29.707	27.190	50.518	O.3	1	SAM1	0.000	
16	 C1'	27.774	26.225	49.680	C.3	1	SAM1	0.000	
17	 OXT	26.062	31.655	46.455	O.co2	1	SAM1	0.000	
18	  N1	25.864	22.191	52.354	N.2	1	SAM1	0.000	
19	  C2	26.553	23.281	52.792	C.2	1	SAM1	0.000	
20	  N3	27.014	24.253	51.981	N.2	1	SAM1	0.000	
21	  C4	26.727	24.186	50.628	C.2	1	SAM1	0.000	
22	  C5	25.987	23.056	50.072	C.2	1	SAM1	0.000	
23	  C6	25.565	22.050	51.040	C.2	1	SAM1	0.000	
24	  N6	24.876	21.038	50.589	N.pl3	1	SAM1	0.000	
25	  N7	25.864	23.208	48.701	N.2	1	SAM1	0.000	
26	  C8	26.518	24.396	48.445	C.2	1	SAM1	0.000	
27	  N9	27.015	24.941	49.568	N.2	1	SAM1	0.000	
28	  HA	26.845	29.183	47.417	 H	1	SAM1	0.000	
29	 HB1	25.619	29.603	45.085	 H	1	SAM1	0.000	
30	 HB2	24.369	28.559	45.801	 H	1	SAM1	0.000	
31	 HG1	25.889	27.179	44.486	 H	1	SAM1	0.000	
32	 HG2	26.116	26.808	46.212	 H	1	SAM1	0.000	
33	 HE1	27.946	27.825	42.997	 H	1	SAM1	0.000	
34	 HE2	28.142	26.208	43.714	 H	1	SAM1	0.000	
35	 HE3	29.509	27.348	43.701	 H	1	SAM1	0.000	
36	  H1	23.986	28.778	48.038	 H	1	SAM1	0.000	
37	  H2	25.193	28.938	49.150	 H	1	SAM1	0.000	
38	  H2	26.741	23.372	53.852	 H	1	SAM1	0.000	
39	  H3	25.162	27.627	48.151	 H	1	SAM1	0.000	
40	  H8	26.618	24.834	47.463	 H	1	SAM1	0.000	
41	 H1'	27.364	26.730	50.555	 H	1	SAM1	0.000	
42	 H2'	29.552	25.142	50.414	 H	1	SAM1	0.000	
43	 H2'	30.664	27.141	50.570	 H	1	SAM1	0.000	
44	 H3'	29.763	25.066	48.027	 H	1	SAM1	0.000	
45	 H3'	31.689	25.833	48.759	 H	1	SAM1	0.000	
46	 H4'	29.233	28.144	47.860	 H	1	SAM1	0.000	
47	 H61	24.656	20.975	49.605	 H	1	SAM1	0.000	
48	 H62	24.563	20.317	51.224	 H	1	SAM1	0.000	
49	H5'1	29.827	26.824	45.902	 H	1	SAM1	0.000	
50	H5'2	28.364	25.842	46.159	 H	1	SAM1	0.000	
@<TRIPOS>BOND
1 1 2 1
2 1 36 1
3 1 37 1
4 1 39 1
5 2 3 1
6 2 5 1
7 2 28 1
8 3 4 ar
9 3 17 ar
10 5 6 1
11 5 29 1
12 5 30 1
13 6 7 1
14 6 31 1
15 6 32 1
16 7 8 1
17 7 9 1
18 8 33 1
19 8 34 1
20 8 35 1
21 9 10 1
22 9 49 1
23 9 50 1
24 10 11 1
25 10 12 1
26 10 46 1
27 11 16 1
28 12 13 1
29 12 14 1
30 12 44 1
31 13 45 1
32 14 15 1
33 14 16 1
34 14 42 1
35 15 43 1
36 16 27 1
37 16 41 1
38 18 19 ar
39 18 23 ar
40 19 20 ar
41 19 38 1
42 20 21 ar
43 21 22 ar
44 21 27 ar
45 22 23 ar
46 22 25 ar
47 23 24 1
48 24 47 1
49 24 48 1
50 25 26 ar
51 26 27 ar
52 26 40 1
@<TRIPOS>SUBSTRUCTURE
1	SAM1	1	GROUP	1 A	SAM
