# created with PyMOL 2.4.0
@<TRIPOS>MOLECULE
temp
50 52 1                 
SMALL
USER_CHARGES
@<TRIPOS>ATOM
1	   N	99.003	-3.157	134.702	N.4	1	SAM1	0.000	
2	  CA	98.590	-2.265	135.840	C.3	1	SAM1	0.000	
3	   C	99.403	-2.651	137.048	C.2	1	SAM1	0.000	
4	   O	99.150	-2.004	138.096	O.co2	1	SAM1	0.000	
5	  CB	97.116	-2.327	136.149	C.3	1	SAM1	0.000	
6	  CG	96.240	-1.421	135.277	C.3	1	SAM1	0.000	
7	  SD	96.401	0.312	135.587	S.3	1	SAM1	0.000	
8	  CE	94.884	0.943	135.824	C.3	1	SAM1	0.000	
9	 C5'	96.879	1.108	134.147	C.3	1	SAM1	0.000	
10	 C4'	98.352	1.065	133.750	C.3	1	SAM1	0.000	
11	 O4'	98.660	-0.283	133.309	O.3	1	SAM1	0.000	
12	 C3'	98.775	1.933	132.589	C.3	1	SAM1	0.000	
13	 O3'	99.072	3.289	133.014	O.3	1	SAM1	0.000	
14	 C2'	99.983	1.164	132.079	C.3	1	SAM1	0.000	
15	 O2'	101.140	1.310	132.926	O.3	1	SAM1	0.000	
16	 C1'	99.556	-0.261	132.162	C.3	1	SAM1	0.000	
17	 OXT	100.351	-3.496	136.961	O.co2	1	SAM1	0.000	
18	  N1	99.546	-1.371	127.193	N.2	1	SAM1	0.000	
19	  C2	100.564	-0.955	127.942	C.2	1	SAM1	0.000	
20	  N3	100.460	-0.727	129.249	N.2	1	SAM1	0.000	
21	  C4	99.212	-0.858	129.761	C.2	1	SAM1	0.000	
22	  C5	98.087	-1.247	128.978	C.2	1	SAM1	0.000	
23	  C6	98.302	-1.507	127.598	C.2	1	SAM1	0.000	
24	  N6	97.273	-1.880	126.865	N.pl3	1	SAM1	0.000	
25	  N7	96.927	-1.260	129.791	N.2	1	SAM1	0.000	
26	  C8	97.426	-0.944	130.986	C.2	1	SAM1	0.000	
27	  N9	98.727	-0.653	130.999	N.2	1	SAM1	0.000	
28	  HA	98.780	-1.232	135.550	 H	1	SAM1	0.000	
29	 HB1	96.975	-2.036	137.190	 H	1	SAM1	0.000	
30	 HB2	96.783	-3.356	136.011	 H	1	SAM1	0.000	
31	 HG1	95.199	-1.697	135.444	 H	1	SAM1	0.000	
32	 HG2	96.501	-1.602	134.234	 H	1	SAM1	0.000	
33	 HE1	94.450	0.515	136.727	 H	1	SAM1	0.000	
34	 HE2	94.253	0.703	134.968	 H	1	SAM1	0.000	
35	 HE3	94.953	2.025	135.932	 H	1	SAM1	0.000	
36	  H1	98.835	-4.121	134.952	 H	1	SAM1	0.000	
37	  H2	99.986	-3.025	134.511	 H	1	SAM1	0.000	
38	  H2	101.520	-0.795	127.467	 H	1	SAM1	0.000	
39	  H3	98.466	-2.924	133.879	 H	1	SAM1	0.000	
40	  H8	96.820	-0.925	131.880	 H	1	SAM1	0.000	
41	 H1'	100.422	-0.921	132.214	 H	1	SAM1	0.000	
42	 H2'	100.265	1.518	131.087	 H	1	SAM1	0.000	
43	 H2'	101.375	2.241	132.938	 H	1	SAM1	0.000	
44	 H3'	98.016	2.088	131.822	 H	1	SAM1	0.000	
45	 H3'	99.393	3.770	132.247	 H	1	SAM1	0.000	
46	 H4'	98.870	1.422	134.640	 H	1	SAM1	0.000	
47	 H61	96.360	-1.975	127.287	 H	1	SAM1	0.000	
48	 H62	97.397	-2.071	125.881	 H	1	SAM1	0.000	
49	H5'1	96.604	2.157	134.252	 H	1	SAM1	0.000	
50	H5'2	96.312	0.664	133.329	 H	1	SAM1	0.000	
@<TRIPOS>BOND
1 1 2 1
2 1 36 1
3 1 37 1
4 1 39 1
5 2 3 1
6 2 5 1
7 2 28 1
8 3 4 ar
9 3 17 ar
10 5 6 1
11 5 29 1
12 5 30 1
13 6 7 1
14 6 31 1
15 6 32 1
16 7 8 1
17 7 9 1
18 8 33 1
19 8 34 1
20 8 35 1
21 9 10 1
22 9 49 1
23 9 50 1
24 10 11 1
25 10 12 1
26 10 46 1
27 11 16 1
28 12 13 1
29 12 14 1
30 12 44 1
31 13 45 1
32 14 15 1
33 14 16 1
34 14 42 1
35 15 43 1
36 16 27 1
37 16 41 1
38 18 19 ar
39 18 23 ar
40 19 20 ar
41 19 38 1
42 20 21 ar
43 21 22 ar
44 21 27 ar
45 22 23 ar
46 22 25 ar
47 23 24 1
48 24 47 1
49 24 48 1
50 25 26 ar
51 26 27 ar
52 26 40 1
@<TRIPOS>SUBSTRUCTURE
1	SAM1	1	GROUP	1 A	SAM
