# created with PyMOL 2.5.0
@<TRIPOS>MOLECULE
5JIY
27 29 1                 
SMALL
USER_CHARGES
@<TRIPOS>ATOM
1	   N	55.363	-2.586	171.810	N.3	1	SAM1205	0.000	
2	  CA	55.785	-1.615	170.774	C.3	1	SAM1205	0.000	
3	   C	54.949	-1.819	169.521	C.2	1	SAM1205	0.000	
4	   O	55.302	-1.140	168.508	O.co2	1	SAM1205	0.000	
5	  CB	57.280	-1.833	170.429	C.3	1	SAM1205	0.000	
6	  CG	58.278	-1.192	171.327	C.3	1	SAM1205	0.000	
7	  SD	58.355	0.519	171.156	S.3	1	SAM1205	0.000	
8	  CE	59.973	0.922	171.029	C.3	1	SAM1205	0.000	
9	 C5'	58.052	1.253	172.639	C.3	1	SAM1205	0.000	
10	 C4'	56.565	1.296	173.038	C.3	1	SAM1205	0.000	
11	 O4'	56.040	-0.015	173.338	O.3	1	SAM1205	0.000	
12	 C3'	56.266	2.091	174.305	C.3	1	SAM1205	0.000	
13	 O3'	56.033	3.482	174.112	O.3	1	SAM1205	0.000	
14	 C2'	54.980	1.450	174.789	C.3	1	SAM1205	0.000	
15	 O2'	53.900	1.889	173.932	O.3	1	SAM1205	0.000	
16	 C1'	55.194	-0.018	174.515	C.3	1	SAM1205	0.000	
17	 OXT	53.979	-2.643	169.485	O.co2	1	SAM1205	0.000	
18	  N1	55.057	-1.506	179.511	N.2	1	SAM1205	0.000	
19	  C2	54.139	-0.907	178.751	C.2	1	SAM1205	0.000	
20	  N3	54.218	-0.587	177.463	N.2	1	SAM1205	0.000	
21	  C4	55.413	-0.872	176.878	C.2	1	SAM1205	0.000	
22	  C5	56.462	-1.499	177.633	C.2	1	SAM1205	0.000	
23	  C6	56.266	-1.864	179.010	C.2	1	SAM1205	0.000	
24	  N6	57.289	-2.456	179.663	N.pl3	1	SAM1205	0.000	
25	  N7	57.534	-1.671	176.773	N.2	1	SAM1205	0.000	
26	  C8	57.174	-1.151	175.576	C.2	1	SAM1205	0.000	
27	  N9	55.926	-0.627	175.664	N.2	1	SAM1205	0.000	
@<TRIPOS>BOND
1 1 2 1
2 2 3 1
3 2 5 1
4 3 4 ar
5 3 17 ar
6 5 6 1
7 6 7 1
8 7 8 1
9 7 9 1
10 9 10 1
11 10 11 1
12 10 12 1
13 11 16 1
14 12 13 1
15 12 14 1
16 14 15 1
17 14 16 1
18 16 27 1
19 18 19 ar
20 18 23 ar
21 19 20 ar
22 20 21 ar
23 21 22 ar
24 21 27 ar
25 22 23 ar
26 22 25 ar
27 23 24 1
28 25 26 ar
29 26 27 ar
@<TRIPOS>SUBSTRUCTURE
1	SAM1205	1	GROUP	1 B	SAM
