@<TRIPOS>MOLECULE
5JIY.A
51 53 1 0 0 
SMALL
USER_CHARGES


@<TRIPOS>ATOM
  1 N       99.0030    -3.1570   134.7020 N.4   1 SAM  -0.8530 
  2 H1      98.8347    -4.1211   134.9517 H     1 SAM   0.4500 
  3 H2      99.9860    -3.0254   134.5107 H     1 SAM   0.4500 
  4 H3      98.4657    -2.9236   133.8792 H     1 SAM   0.4500 
  5 CA      98.5900    -2.2650   135.8400 C.3   1 SAM   0.3170 
  6 HA      98.7798    -1.2316   135.5497 H     1 SAM   0.0800 
  7 C       99.4030    -2.6510   137.0480 C.2   1 SAM   0.9060 
  8 O       99.1500    -2.0040   138.0960 O.co2 1 SAM  -0.9000 
  9 CB      97.1160    -2.3270   136.1490 C.3   1 SAM  -0.1600 
 10 HB1     96.9748    -2.0359   137.1899 H     1 SAM   0.0800 
 11 HB2     96.7832    -3.3558   136.0111 H     1 SAM   0.0800 
 12 CG      96.2400    -1.4210   135.2770 C.3   1 SAM  -0.1525 
 13 HG1     95.1990    -1.6975   135.4438 H     1 SAM   0.0800 
 14 HG2     96.5014    -1.6022   134.2345 H     1 SAM   0.0800 
 15 SD      96.4010     0.3120   135.5870 S.3   1 SAM   0.9775 
 16 CE      94.8840     0.9430   135.8240 C.3   1 SAM  -0.2325 
 17 HE1     94.4495     0.5149   136.7274 H     1 SAM   0.0800 
 18 HE2     94.2529     0.7030   134.9683 H     1 SAM   0.0800 
 19 HE3     94.9535     2.0254   135.9319 H     1 SAM   0.0800 
 20 C5'     96.8790     1.1080   134.1470 C.3   1 SAM  -0.1525 
 21 H5'1    96.6038     2.1574   134.2520 H     1 SAM   0.0800 
 22 H5'2    96.3115     0.6637   133.3293 H     1 SAM   0.0800 
 23 C4'     98.3520     1.0650   133.7500 C.3   1 SAM   0.2000 
 24 H4'     98.8700     1.4219   134.6402 H     1 SAM   0.0800 
 25 O4'     98.6600    -0.2830   133.3090 O.3   1 SAM  -0.5600 
 26 C3'     98.7750     1.9330   132.5890 C.3   1 SAM   0.2000 
 27 H3'     98.0157     2.0878   131.8224 H     1 SAM   0.0800 
 28 O3'     99.0720     3.2890   133.0140 O.3   1 SAM  -0.6800 
 29 H3'     99.3925     3.7698   132.2474 H     1 SAM   0.4000 
 30 C2'     99.9830     1.1640   132.0790 C.3   1 SAM   0.2000 
 31 H2'    100.2652     1.5178   131.0874 H     1 SAM   0.0800 
 32 O2'    101.1400     1.3100   132.9260 O.3   1 SAM  -0.6800 
 33 H2'    101.3753     2.2406   132.9381 H     1 SAM   0.4000 
 34 C1'     99.5560    -0.2610   132.1620 C.3   1 SAM   0.5691 
 35 H1'    100.4223    -0.9206   132.2137 H     1 SAM   0.0800 
 36 OXT    100.3510    -3.4960   136.9610 O.co2 1 SAM  -0.9000 
 37 N1      99.5460    -1.3710   127.1930 N.2   1 SAM  -0.6610 
 38 C2     100.5640    -0.9550   127.9420 C.2   1 SAM   0.6010 
 39 H2     101.5204    -0.7947   127.4666 H     1 SAM   0.0600 
 40 N3     100.4600    -0.7270   129.2490 N.2   1 SAM  -0.6610 
 41 C4      99.2120    -0.8580   129.7610 C.2   1 SAM   0.5000 
 42 C5      98.0870    -1.2470   128.9780 C.2   1 SAM   0.4500 
 43 C6      98.3020    -1.5070   127.5980 C.2   1 SAM   0.6110 
 44 N6      97.2730    -1.8800   126.8650 N.2   1 SAM  -0.2000 
 45 H62     97.3968    -2.0714   125.8811 H     1 SAM   0.4000 
 46 H61     96.3602    -1.9746   127.2869 H     1 SAM   0.4000 
 47 N7      96.9270    -1.2600   129.7910 N.2   1 SAM  -0.6960 
 48 C8      97.4260    -0.9440   130.9860 C.3   1 SAM   0.4551 
 49 H81     97.2630    -1.7898   131.6539 H     1 SAM   0.0800 
 50 H82     96.8826    -0.0761   131.3596 H     1 SAM   0.0800 
 51 N9      98.7270    -0.6530   130.9990 N.pl3 1 SAM  -0.7882 
@<TRIPOS>BOND
  1   1   2  1   
  2   1   3  1   
  3   1   4  1   
  4   1   5  1   
  5   5   6  1   
  6   5   7  1   
  7   5   9  1   
  8   7   8  ar  
  9   7  36  ar  
 10   9  10  1   
 11   9  11  1   
 12   9  12  1   
 13  12  13  1   
 14  12  14  1   
 15  12  15  1   
 16  15  16  1   
 17  15  20  1   
 18  16  17  1   
 19  16  18  1   
 20  16  19  1   
 21  20  21  1   
 22  20  22  1   
 23  20  23  1   
 24  23  24  1   
 25  23  25  1   
 26  23  26  1   
 27  25  34  1   
 28  26  27  1   
 29  26  28  1   
 30  26  30  1   
 31  28  29  1   
 32  30  31  1   
 33  30  32  1   
 34  30  34  1   
 35  32  33  1   
 36  34  35  1   
 37  34  51  1   
 38  37  38  2   
 39  37  43  1   
 40  38  39  1   
 41  38  40  1   
 42  40  41  2   
 43  41  42  1   
 44  41  51  1   
 45  42  43  1   
 46  42  47  2   
 47  43  44  2   
 48  44  45  1   
 49  44  46  1   
 50  47  48  1   
 51  48  49  1   
 52  48  50  1   
 53  48  51  1   
@<TRIPOS>SUBSTRUCTURE
  1 SAM  25 GROUP 4 A **** 0

# MOE 2022.02 (io_trps.svl 2020.11)
