@<TRIPOS>MOLECULE
5JIY.B
51 53 1 0 0 
SMALL
USER_CHARGES


@<TRIPOS>ATOM
  1 N       55.3630    -2.5860   171.8100 N.4   1 SAM  -0.8530 
  2 H1      55.4924    -3.5257   171.4633 H     1 SAM   0.4500 
  3 H2      54.3884    -2.4400   172.0312 H     1 SAM   0.4500 
  4 H3      55.9204    -2.4543   172.6419 H     1 SAM   0.4500 
  5 CA      55.7850    -1.6150   170.7740 C.3   1 SAM   0.3170 
  6 HA      55.6437    -0.6025   171.1522 H     1 SAM   0.0800 
  7 C       54.9490    -1.8190   169.5210 C.2   1 SAM   0.9060 
  8 O       55.3020    -1.1400   168.5080 O.co2 1 SAM  -0.9000 
  9 CB      57.2800    -1.8330   170.4290 C.3   1 SAM  -0.1600 
 10 HB1     57.4457    -1.4466   169.4234 H     1 SAM   0.0800 
 11 HB2     57.4677    -2.9067   170.4411 H     1 SAM   0.0800 
 12 CG      58.2780    -1.1920   171.3270 C.3   1 SAM  -0.1525 
 13 HG1     59.2609    -1.6060   171.1020 H     1 SAM   0.0800 
 14 HG2     58.0135    -1.4242   172.3586 H     1 SAM   0.0800 
 15 SD      58.3550     0.5190   171.1560 S.3   1 SAM   0.9775 
 16 CE      59.9730     0.9220   171.0290 C.3   1 SAM  -0.2325 
 17 HE1     60.3748     0.5229   170.0977 H     1 SAM   0.0800 
 18 HE2     60.5200     0.4989   171.8715 H     1 SAM   0.0800 
 19 HE3     60.0788     2.0068   171.0350 H     1 SAM   0.0800 
 20 C5'     58.0520     1.2530   172.6390 C.3   1 SAM  -0.1525 
 21 H5'1    58.4222     2.2772   172.5940 H     1 SAM   0.0800 
 22 H5'2    58.5952     0.7038   173.4081 H     1 SAM   0.0800 
 23 C4'     56.5650     1.2960   173.0380 C.3   1 SAM   0.2000 
 24 H4'     56.1098     1.7613   172.1637 H     1 SAM   0.0800 
 25 O4'     56.0400    -0.0150   173.3380 O.3   1 SAM  -0.5600 
 26 C3'     56.2660     2.0910   174.3050 C.3   1 SAM   0.2000 
 27 H3'     57.1196     2.0563   174.9819 H     1 SAM   0.0800 
 28 O3'     56.0330     3.4820   174.1120 O.3   1 SAM  -0.6800 
 29 H3'     55.2842     3.5712   173.5179 H     1 SAM   0.4000 
 30 C2'     54.9800     1.4500   174.7890 C.3   1 SAM   0.2000 
 31 H2'     54.7485     1.6847   175.8280 H     1 SAM   0.0800 
 32 O2'     53.9000     1.8890   173.9320 O.3   1 SAM  -0.6800 
 33 H2'     53.1050     1.4264   174.2069 H     1 SAM   0.4000 
 34 C1'     55.1940    -0.0180   174.5150 C.3   1 SAM   0.5691 
 35 H1'     54.2703    -0.5798   174.3767 H     1 SAM   0.0800 
 36 OXT     53.9790    -2.6430   169.4850 O.co2 1 SAM  -0.9000 
 37 N1      55.0570    -1.5060   179.5110 N.2   1 SAM  -0.6610 
 38 C2      54.1390    -0.9070   178.7510 C.2   1 SAM   0.6010 
 39 H2      53.2138    -0.6491   179.2448 H     1 SAM   0.0600 
 40 N3      54.2180    -0.5870   177.4630 N.2   1 SAM  -0.6610 
 41 C4      55.4130    -0.8720   176.8780 C.2   1 SAM   0.5000 
 42 C5      56.4620    -1.4990   177.6330 C.2   1 SAM   0.4500 
 43 C6      56.2660    -1.8640   179.0100 C.2   1 SAM   0.6110 
 44 N6      57.2890    -2.4560   179.6630 N.2   1 SAM  -0.2000 
 45 H62     57.1825    -2.7243   180.6309 H     1 SAM   0.4000 
 46 H61     58.1607    -2.6305   179.1835 H     1 SAM   0.4000 
 47 N7      57.5340    -1.6710   176.7730 N.2   1 SAM  -0.6960 
 48 C8      57.1740    -1.1510   175.5760 C.3   1 SAM   0.4551 
 49 H81     57.1849    -1.9371   174.8210 H     1 SAM   0.0800 
 50 H82     57.8774    -0.3673   175.2947 H     1 SAM   0.0800 
 51 N9      55.9260    -0.6270   175.6640 N.pl3 1 SAM  -0.7882 
@<TRIPOS>BOND
  1   1   2  1   
  2   1   3  1   
  3   1   4  1   
  4   1   5  1   
  5   5   6  1   
  6   5   7  1   
  7   5   9  1   
  8   7   8  ar  
  9   7  36  ar  
 10   9  10  1   
 11   9  11  1   
 12   9  12  1   
 13  12  13  1   
 14  12  14  1   
 15  12  15  1   
 16  15  16  1   
 17  15  20  1   
 18  16  17  1   
 19  16  18  1   
 20  16  19  1   
 21  20  21  1   
 22  20  22  1   
 23  20  23  1   
 24  23  24  1   
 25  23  25  1   
 26  23  26  1   
 27  25  34  1   
 28  26  27  1   
 29  26  28  1   
 30  26  30  1   
 31  28  29  1   
 32  30  31  1   
 33  30  32  1   
 34  30  34  1   
 35  32  33  1   
 36  34  35  1   
 37  34  51  1   
 38  37  38  2   
 39  37  43  1   
 40  38  39  1   
 41  38  40  1   
 42  40  41  2   
 43  41  42  1   
 44  41  51  1   
 45  42  43  1   
 46  42  47  2   
 47  43  44  2   
 48  44  45  1   
 49  44  46  1   
 50  47  48  1   
 51  48  49  1   
 52  48  50  1   
 53  48  51  1   
@<TRIPOS>SUBSTRUCTURE
  1 SAM  25 GROUP 4 B **** 0

# MOE 2022.02 (io_trps.svl 2020.11)
