# created with PyMOL 2.5.0
@<TRIPOS>MOLECULE
5JIY
27 29 1                 
SMALL
USER_CHARGES
@<TRIPOS>ATOM
1	   N	99.003	-3.157	134.702	N.3	1	SAM1205	0.000	
2	  CA	98.590	-2.265	135.840	C.3	1	SAM1205	0.000	
3	   C	99.403	-2.651	137.048	C.2	1	SAM1205	0.000	
4	   O	99.150	-2.004	138.096	O.co2	1	SAM1205	0.000	
5	  CB	97.116	-2.327	136.149	C.3	1	SAM1205	0.000	
6	  CG	96.240	-1.421	135.277	C.3	1	SAM1205	0.000	
7	  SD	96.401	0.312	135.587	S.3	1	SAM1205	0.000	
8	  CE	94.884	0.943	135.824	C.3	1	SAM1205	0.000	
9	 C5'	96.879	1.108	134.147	C.3	1	SAM1205	0.000	
10	 C4'	98.352	1.065	133.750	C.3	1	SAM1205	0.000	
11	 O4'	98.660	-0.283	133.309	O.3	1	SAM1205	0.000	
12	 C3'	98.775	1.933	132.589	C.3	1	SAM1205	0.000	
13	 O3'	99.072	3.289	133.014	O.3	1	SAM1205	0.000	
14	 C2'	99.983	1.164	132.079	C.3	1	SAM1205	0.000	
15	 O2'	101.140	1.310	132.926	O.3	1	SAM1205	0.000	
16	 C1'	99.556	-0.261	132.162	C.3	1	SAM1205	0.000	
17	 OXT	100.351	-3.496	136.961	O.co2	1	SAM1205	0.000	
18	  N1	99.546	-1.371	127.193	N.2	1	SAM1205	0.000	
19	  C2	100.564	-0.955	127.942	C.2	1	SAM1205	0.000	
20	  N3	100.460	-0.727	129.249	N.2	1	SAM1205	0.000	
21	  C4	99.212	-0.858	129.761	C.2	1	SAM1205	0.000	
22	  C5	98.087	-1.247	128.978	C.2	1	SAM1205	0.000	
23	  C6	98.302	-1.507	127.598	C.2	1	SAM1205	0.000	
24	  N6	97.273	-1.880	126.865	N.pl3	1	SAM1205	0.000	
25	  N7	96.927	-1.260	129.791	N.2	1	SAM1205	0.000	
26	  C8	97.426	-0.944	130.986	C.2	1	SAM1205	0.000	
27	  N9	98.727	-0.653	130.999	N.2	1	SAM1205	0.000	
@<TRIPOS>BOND
1 1 2 1
2 2 3 1
3 2 5 1
4 3 4 ar
5 3 17 ar
6 5 6 1
7 6 7 1
8 7 8 1
9 7 9 1
10 9 10 1
11 10 11 1
12 10 12 1
13 11 16 1
14 12 13 1
15 12 14 1
16 14 15 1
17 14 16 1
18 16 27 1
19 18 19 ar
20 18 23 ar
21 19 20 ar
22 20 21 ar
23 21 22 ar
24 21 27 ar
25 22 23 ar
26 22 25 ar
27 23 24 1
28 25 26 ar
29 26 27 ar
@<TRIPOS>SUBSTRUCTURE
1	SAM1205	1	GROUP	1 A	SAM
