# created with PyMOL 2.4.0
@<TRIPOS>MOLECULE
temp
50 52 1                 
SMALL
USER_CHARGES
@<TRIPOS>ATOM
1	   N	55.363	-2.586	171.810	N.4	1	SAM1	0.000	
2	  CA	55.785	-1.615	170.774	C.3	1	SAM1	0.000	
3	   C	54.949	-1.819	169.521	C.2	1	SAM1	0.000	
4	   O	55.302	-1.140	168.508	O.co2	1	SAM1	0.000	
5	  CB	57.280	-1.833	170.429	C.3	1	SAM1	0.000	
6	  CG	58.278	-1.192	171.327	C.3	1	SAM1	0.000	
7	  SD	58.355	0.519	171.156	S.3	1	SAM1	0.000	
8	  CE	59.973	0.922	171.029	C.3	1	SAM1	0.000	
9	 C5'	58.052	1.253	172.639	C.3	1	SAM1	0.000	
10	 C4'	56.565	1.296	173.038	C.3	1	SAM1	0.000	
11	 O4'	56.040	-0.015	173.338	O.3	1	SAM1	0.000	
12	 C3'	56.266	2.091	174.305	C.3	1	SAM1	0.000	
13	 O3'	56.033	3.482	174.112	O.3	1	SAM1	0.000	
14	 C2'	54.980	1.450	174.789	C.3	1	SAM1	0.000	
15	 O2'	53.900	1.889	173.932	O.3	1	SAM1	0.000	
16	 C1'	55.194	-0.018	174.515	C.3	1	SAM1	0.000	
17	 OXT	53.979	-2.643	169.485	O.co2	1	SAM1	0.000	
18	  N1	55.057	-1.506	179.511	N.2	1	SAM1	0.000	
19	  C2	54.139	-0.907	178.751	C.2	1	SAM1	0.000	
20	  N3	54.218	-0.587	177.463	N.2	1	SAM1	0.000	
21	  C4	55.413	-0.872	176.878	C.2	1	SAM1	0.000	
22	  C5	56.462	-1.499	177.633	C.2	1	SAM1	0.000	
23	  C6	56.266	-1.864	179.010	C.2	1	SAM1	0.000	
24	  N6	57.289	-2.456	179.663	N.pl3	1	SAM1	0.000	
25	  N7	57.534	-1.671	176.773	N.2	1	SAM1	0.000	
26	  C8	57.174	-1.151	175.576	C.2	1	SAM1	0.000	
27	  N9	55.926	-0.627	175.664	N.2	1	SAM1	0.000	
28	  HA	55.644	-0.603	171.152	 H	1	SAM1	0.000	
29	 HB1	57.446	-1.447	169.423	 H	1	SAM1	0.000	
30	 HB2	57.468	-2.907	170.441	 H	1	SAM1	0.000	
31	 HG1	59.261	-1.606	171.102	 H	1	SAM1	0.000	
32	 HG2	58.014	-1.424	172.359	 H	1	SAM1	0.000	
33	 HE1	60.375	0.523	170.098	 H	1	SAM1	0.000	
34	 HE2	60.520	0.499	171.872	 H	1	SAM1	0.000	
35	 HE3	60.079	2.007	171.035	 H	1	SAM1	0.000	
36	  H1	55.492	-3.526	171.463	 H	1	SAM1	0.000	
37	  H2	54.388	-2.440	172.031	 H	1	SAM1	0.000	
38	  H2	53.214	-0.649	179.245	 H	1	SAM1	0.000	
39	  H3	55.920	-2.454	172.642	 H	1	SAM1	0.000	
40	  H8	57.787	-1.153	174.687	 H	1	SAM1	0.000	
41	 H1'	54.270	-0.580	174.377	 H	1	SAM1	0.000	
42	 H2'	54.749	1.685	175.828	 H	1	SAM1	0.000	
43	 H2'	53.808	2.838	174.045	 H	1	SAM1	0.000	
44	 H3'	57.120	2.056	174.982	 H	1	SAM1	0.000	
45	 H3'	55.844	3.866	174.971	 H	1	SAM1	0.000	
46	 H4'	56.110	1.761	172.164	 H	1	SAM1	0.000	
47	 H61	58.161	-2.631	179.184	 H	1	SAM1	0.000	
48	 H62	57.182	-2.724	180.631	 H	1	SAM1	0.000	
49	H5'1	58.422	2.277	172.594	 H	1	SAM1	0.000	
50	H5'2	58.595	0.704	173.408	 H	1	SAM1	0.000	
@<TRIPOS>BOND
1 1 2 1
2 1 36 1
3 1 37 1
4 1 39 1
5 2 3 1
6 2 5 1
7 2 28 1
8 3 4 ar
9 3 17 ar
10 5 6 1
11 5 29 1
12 5 30 1
13 6 7 1
14 6 31 1
15 6 32 1
16 7 8 1
17 7 9 1
18 8 33 1
19 8 34 1
20 8 35 1
21 9 10 1
22 9 49 1
23 9 50 1
24 10 11 1
25 10 12 1
26 10 46 1
27 11 16 1
28 12 13 1
29 12 14 1
30 12 44 1
31 13 45 1
32 14 15 1
33 14 16 1
34 14 42 1
35 15 43 1
36 16 27 1
37 16 41 1
38 18 19 ar
39 18 23 ar
40 19 20 ar
41 19 38 1
42 20 21 ar
43 21 22 ar
44 21 27 ar
45 22 23 ar
46 22 25 ar
47 23 24 1
48 24 47 1
49 24 48 1
50 25 26 ar
51 26 27 ar
52 26 40 1
@<TRIPOS>SUBSTRUCTURE
1	SAM1	1	GROUP	1 B	SAM
