@<TRIPOS>MOLECULE
1V2X.A
51 53 1 0 0 
SMALL
USER_CHARGES


@<TRIPOS>ATOM
  1 N      -14.5080    -8.3170     6.4880 N.4   1 SAM  -0.8530 
  2 H1     -14.5812    -8.3579     5.4815 H     1 SAM   0.4500 
  3 H2     -15.4142    -8.4908     6.8988 H     1 SAM   0.4500 
  4 H3     -13.8539    -9.0175     6.8067 H     1 SAM   0.4500 
  5 CA     -14.0100    -6.9160     6.9120 C.3   1 SAM   0.3170 
  6 HA     -13.9090    -6.8056     7.9917 H     1 SAM   0.0800 
  7 C      -14.9880    -5.9450     6.4300 C.2   1 SAM   0.9060 
  8 O      -15.6130    -6.2930     5.3630 O.co2 1 SAM  -0.9000 
  9 CB     -12.6930    -6.7160     6.2900 C.3   1 SAM  -0.1600 
 10 HB1    -12.8879    -6.8064     5.2214 H     1 SAM   0.0800 
 11 HB2    -12.1081    -7.5720     6.6264 H     1 SAM   0.0800 
 12 CG     -11.7600    -5.5840     6.3890 C.3   1 SAM  -0.1525 
 13 HG1    -11.4687    -5.4662     7.4327 H     1 SAM   0.0800 
 14 HG2    -12.2721    -4.6832     6.0508 H     1 SAM   0.0800 
 15 SD     -10.2600    -5.8010     5.3940 S.3   1 SAM   0.9775 
 16 CE     -10.3960    -7.3530     4.5070 C.3   1 SAM  -0.2325 
 17 HE1    -11.2256    -7.2972     3.8022 H     1 SAM   0.0800 
 18 HE2    -10.5749    -8.1619     5.2154 H     1 SAM   0.0800 
 19 HE3     -9.4702    -7.5436     3.9641 H     1 SAM   0.0800 
 20 C5'     -8.6830    -6.0220     6.6770 C.3   1 SAM  -0.1525 
 21 H5'1    -7.7721    -6.2387     6.1189 H     1 SAM   0.0800 
 22 H5'2    -8.8804    -6.8322     7.3790 H     1 SAM   0.0800 
 23 C4'     -8.5990    -5.2510     7.1140 C.3   1 SAM   0.2000 
 24 H4'     -9.6777    -5.1845     7.2560 H     1 SAM   0.0800 
 25 O4'     -8.6410    -4.1840     6.1350 O.3   1 SAM  -0.5600 
 26 C3'     -8.3600    -4.5850     8.4570 C.3   1 SAM   0.2000 
 27 H3'     -9.0204    -4.9144     9.2592 H     1 SAM   0.0800 
 28 O3'     -7.0280    -4.9060     8.9520 O.3   1 SAM  -0.6800 
 29 H3'     -6.8972    -4.4201     9.7695 H     1 SAM   0.4000 
 30 C2'     -8.5660    -3.1260     8.1430 C.3   1 SAM   0.2000 
 31 H2'     -9.5436    -2.7113     8.3887 H     1 SAM   0.0800 
 32 O2'     -7.6860    -2.4410     8.9500 O.3   1 SAM  -0.6800 
 33 H2'     -6.8046    -2.7749     8.7674 H     1 SAM   0.4000 
 34 C1'     -8.5640    -2.9090     6.6200 C.3   1 SAM   0.5691 
 35 H1'     -7.8962    -2.0475     6.6239 H     1 SAM   0.0800 
 36 OXT    -15.1410    -4.8640     7.1100 O.co2 1 SAM  -0.9000 
 37 N1      -9.6030     1.9340     4.9930 N.2   1 SAM  -0.6610 
 38 C2      -9.0890     1.6240     6.2580 C.2   1 SAM   0.6010 
 39 H2      -8.9367     2.4367     6.9528 H     1 SAM   0.0600 
 40 N3      -8.7660     0.3580     6.6740 N.2   1 SAM  -0.6610 
 41 C4      -8.9650    -0.5690     5.7160 C.2   1 SAM   0.5000 
 42 C5      -9.4640    -0.3620     4.3880 C.2   1 SAM   0.4500 
 43 C6      -9.8220     1.0160     4.0120 C.2   1 SAM   0.6110 
 44 N6     -10.3290     1.3110     2.8380 N.2   1 SAM  -0.2000 
 45 H62    -10.5627     2.2679     2.6148 H     1 SAM   0.4000 
 46 H61    -10.4855     0.5811     2.1577 H     1 SAM   0.4000 
 47 N7      -9.5650    -1.4920     3.6540 N.2   1 SAM  -0.6960 
 48 C8      -9.1960    -2.3820     4.4700 C.3   1 SAM   0.4551 
 49 H81     -8.3339    -2.8967     4.0457 H     1 SAM   0.0800 
 50 H82    -10.0157    -3.0894     4.5961 H     1 SAM   0.0800 
 51 N9      -8.8330    -1.8910     5.7510 N.pl3 1 SAM  -0.7882 
@<TRIPOS>BOND
  1   1   2  1   
  2   1   3  1   
  3   1   4  1   
  4   1   5  1   
  5   5   6  1   
  6   5   7  1   
  7   5   9  1   
  8   7   8  ar  
  9   7  36  ar  
 10   9  10  1   
 11   9  11  1   
 12   9  12  1   
 13  12  13  1   
 14  12  14  1   
 15  12  15  1   
 16  15  16  1   
 17  15  20  1   
 18  16  17  1   
 19  16  18  1   
 20  16  19  1   
 21  20  21  1   
 22  20  22  1   
 23  20  23  1   
 24  23  24  1   
 25  23  25  1   
 26  23  26  1   
 27  25  34  1   
 28  26  27  1   
 29  26  28  1   
 30  26  30  1   
 31  28  29  1   
 32  30  31  1   
 33  30  32  1   
 34  30  34  1   
 35  32  33  1   
 36  34  35  1   
 37  34  51  1   
 38  37  38  2   
 39  37  43  1   
 40  38  39  1   
 41  38  40  1   
 42  40  41  2   
 43  41  42  1   
 44  41  51  1   
 45  42  43  1   
 46  42  47  2   
 47  43  44  2   
 48  44  45  1   
 49  44  46  1   
 50  47  48  1   
 51  48  49  1   
 52  48  50  1   
 53  48  51  1   
@<TRIPOS>SUBSTRUCTURE
  1 SAM  25 GROUP 4 A **** 0

# MOE 2022.02 (io_trps.svl 2020.11)
