# created with PyMOL 2.4.0
@<TRIPOS>MOLECULE
temp
50 52 1                 
SMALL
USER_CHARGES
@<TRIPOS>ATOM
1	   N	-14.508	-8.317	6.488	N.4	1	SAM1	0.000	
2	  CA	-14.010	-6.916	6.912	C.3	1	SAM1	0.000	
3	   C	-14.988	-5.945	6.430	C.2	1	SAM1	0.000	
4	   O	-15.613	-6.293	5.363	O.co2	1	SAM1	0.000	
5	  CB	-12.693	-6.716	6.290	C.3	1	SAM1	0.000	
6	  CG	-11.760	-5.584	6.389	C.3	1	SAM1	0.000	
7	  SD	-10.260	-5.801	5.394	S.3	1	SAM1	0.000	
8	  CE	-10.396	-7.353	4.507	C.3	1	SAM1	0.000	
9	 C5'	-8.683	-6.022	6.677	C.3	1	SAM1	0.000	
10	 C4'	-8.599	-5.251	7.114	C.3	1	SAM1	0.000	
11	 O4'	-8.641	-4.184	6.135	O.3	1	SAM1	0.000	
12	 C3'	-8.360	-4.585	8.457	C.3	1	SAM1	0.000	
13	 O3'	-7.028	-4.906	8.952	O.3	1	SAM1	0.000	
14	 C2'	-8.566	-3.126	8.143	C.3	1	SAM1	0.000	
15	 O2'	-7.686	-2.441	8.950	O.3	1	SAM1	0.000	
16	 C1'	-8.564	-2.909	6.620	C.3	1	SAM1	0.000	
17	 OXT	-15.141	-4.864	7.110	O.co2	1	SAM1	0.000	
18	  N1	-9.603	1.934	4.993	N.2	1	SAM1	0.000	
19	  C2	-9.089	1.624	6.258	C.2	1	SAM1	0.000	
20	  N3	-8.766	0.358	6.674	N.2	1	SAM1	0.000	
21	  C4	-8.965	-0.569	5.716	C.2	1	SAM1	0.000	
22	  C5	-9.464	-0.362	4.388	C.2	1	SAM1	0.000	
23	  C6	-9.822	1.016	4.012	C.2	1	SAM1	0.000	
24	  N6	-10.329	1.311	2.838	N.pl3	1	SAM1	0.000	
25	  N7	-9.565	-1.492	3.654	N.2	1	SAM1	0.000	
26	  C8	-9.196	-2.382	4.470	C.2	1	SAM1	0.000	
27	  N9	-8.833	-1.891	5.751	N.2	1	SAM1	0.000	
28	  HA	-13.909	-6.806	7.992	 H	1	SAM1	0.000	
29	 HB1	-12.888	-6.806	5.221	 H	1	SAM1	0.000	
30	 HB2	-12.108	-7.572	6.626	 H	1	SAM1	0.000	
31	 HG1	-11.469	-5.466	7.433	 H	1	SAM1	0.000	
32	 HG2	-12.272	-4.683	6.051	 H	1	SAM1	0.000	
33	 HE1	-11.226	-7.297	3.802	 H	1	SAM1	0.000	
34	 HE2	-10.575	-8.162	5.215	 H	1	SAM1	0.000	
35	 HE3	-9.470	-7.544	3.964	 H	1	SAM1	0.000	
36	  H1	-14.581	-8.358	5.482	 H	1	SAM1	0.000	
37	  H2	-15.414	-8.491	6.899	 H	1	SAM1	0.000	
38	  H2	-8.937	2.437	6.953	 H	1	SAM1	0.000	
39	  H3	-13.854	-9.017	6.807	 H	1	SAM1	0.000	
40	  H8	-9.160	-3.431	4.214	 H	1	SAM1	0.000	
41	 H1'	-7.896	-2.047	6.624	 H	1	SAM1	0.000	
42	 H2'	-9.544	-2.711	8.389	 H	1	SAM1	0.000	
43	 H2'	-6.805	-2.775	8.767	 H	1	SAM1	0.000	
44	 H3'	-9.020	-4.914	9.259	 H	1	SAM1	0.000	
45	 H3'	-6.897	-4.420	9.769	 H	1	SAM1	0.000	
46	 H4'	-9.678	-5.185	7.256	 H	1	SAM1	0.000	
47	 H61	-10.486	0.581	2.158	 H	1	SAM1	0.000	
48	 H62	-10.563	2.268	2.615	 H	1	SAM1	0.000	
49	H5'1	-7.772	-6.239	6.119	 H	1	SAM1	0.000	
50	H5'2	-8.880	-6.832	7.379	 H	1	SAM1	0.000	
@<TRIPOS>BOND
1 1 2 1
2 1 36 1
3 1 37 1
4 1 39 1
5 2 3 1
6 2 5 1
7 2 28 1
8 3 4 ar
9 3 17 ar
10 5 6 1
11 5 29 1
12 5 30 1
13 6 7 1
14 6 31 1
15 6 32 1
16 7 8 1
17 7 9 1
18 8 33 1
19 8 34 1
20 8 35 1
21 9 10 1
22 9 49 1
23 9 50 1
24 10 11 1
25 10 12 1
26 10 46 1
27 11 16 1
28 12 13 1
29 12 14 1
30 12 44 1
31 13 45 1
32 14 15 1
33 14 16 1
34 14 42 1
35 15 43 1
36 16 27 1
37 16 41 1
38 18 19 ar
39 18 23 ar
40 19 20 ar
41 19 38 1
42 20 21 ar
43 21 22 ar
44 21 27 ar
45 22 23 ar
46 22 25 ar
47 23 24 1
48 24 47 1
49 24 48 1
50 25 26 ar
51 26 27 ar
52 26 40 1
@<TRIPOS>SUBSTRUCTURE
1	SAM1	1	GROUP	1 A	SAM
