# created with PyMOL 2.5.0
@<TRIPOS>MOLECULE
1V2X
27 31 1                 
SMALL
USER_CHARGES
@<TRIPOS>ATOM
1	   N	-14.508	-8.317	6.488	N.3	1	SAM400	0.000	
2	  CA	-14.010	-6.916	6.912	C.3	1	SAM400	0.000	
3	   C	-14.988	-5.945	6.430	C.2	1	SAM400	0.000	
4	   O	-15.613	-6.293	5.363	O.co2	1	SAM400	0.000	
5	  CB	-12.693	-6.716	6.290	C.3	1	SAM400	0.000	
6	  CG	-11.760	-5.584	6.389	C.3	1	SAM400	0.000	
7	  SD	-10.260	-5.801	5.394	S.3	1	SAM400	0.000	
8	  CE	-10.396	-7.353	4.507	C.3	1	SAM400	0.000	
9	 C5'	-8.683	-6.022	6.677	C.3	1	SAM400	0.000	
10	 C4'	-8.599	-5.251	7.114	C.3	1	SAM400	0.000	
11	 O4'	-8.641	-4.184	6.135	O.3	1	SAM400	0.000	
12	 C3'	-8.360	-4.585	8.457	C.3	1	SAM400	0.000	
13	 O3'	-7.028	-4.906	8.952	O.3	1	SAM400	0.000	
14	 C2'	-8.566	-3.126	8.143	C.3	1	SAM400	0.000	
15	 O2'	-7.686	-2.441	8.950	O.3	1	SAM400	0.000	
16	 C1'	-8.564	-2.909	6.620	C.3	1	SAM400	0.000	
17	 OXT	-15.141	-4.864	7.110	O.co2	1	SAM400	0.000	
18	  N1	-9.603	1.934	4.993	N.2	1	SAM400	0.000	
19	  C2	-9.089	1.624	6.258	C.2	1	SAM400	0.000	
20	  N3	-8.766	0.358	6.674	N.2	1	SAM400	0.000	
21	  C4	-8.965	-0.569	5.716	C.2	1	SAM400	0.000	
22	  C5	-9.464	-0.362	4.388	C.2	1	SAM400	0.000	
23	  C6	-9.822	1.016	4.012	C.2	1	SAM400	0.000	
24	  N6	-10.329	1.311	2.838	N.pl3	1	SAM400	0.000	
25	  N7	-9.565	-1.492	3.654	N.2	1	SAM400	0.000	
26	  C8	-9.196	-2.382	4.470	C.2	1	SAM400	0.000	
27	  N9	-8.833	-1.891	5.751	N.2	1	SAM400	0.000	
@<TRIPOS>BOND
1 1 2 1
2 2 3 1
3 2 5 1
4 3 4 ar
5 3 17 ar
6 5 6 1
7 6 7 1
8 7 8 1
9 7 9 1
10 9 10 1
11 9 11 1
12 10 11 1
13 10 12 1
14 11 16 1
15 12 13 1
16 12 14 1
17 14 15 1
18 14 16 1
19 16 27 1
20 18 19 ar
21 18 23 ar
22 19 20 ar
23 20 21 ar
24 21 22 ar
25 21 27 ar
26 22 23 ar
27 22 25 ar
28 22 26 1
29 23 24 1
30 25 26 ar
31 26 27 ar
@<TRIPOS>SUBSTRUCTURE
1	SAM400	1	GROUP	1 A	SAM
