# created with PyMOL 2.4.0
@<TRIPOS>MOLECULE
temp
50 52 1                 
SMALL
USER_CHARGES
@<TRIPOS>ATOM
1	   N	-10.448	24.798	38.883	N.4	1	SAM1	0.000	
2	  CA	-9.937	26.187	38.990	C.3	1	SAM1	0.000	
3	   C	-10.248	26.919	37.676	C.2	1	SAM1	0.000	
4	   O	-10.630	28.098	37.745	O.co2	1	SAM1	0.000	
5	  CB	-8.420	26.147	39.250	C.3	1	SAM1	0.000	
6	  CG	-7.935	27.286	40.088	C.3	1	SAM1	0.000	
7	  SD	-6.212	27.139	40.612	S.3	1	SAM1	0.000	
8	  CE	-5.331	26.612	39.126	C.3	1	SAM1	0.000	
9	 C5'	-6.229	25.677	41.684	C.3	1	SAM1	0.000	
10	 C4'	-7.222	25.837	42.821	C.3	1	SAM1	0.000	
11	 O4'	-6.989	24.789	43.780	O.3	1	SAM1	0.000	
12	 C3'	-7.116	27.163	43.596	C.3	1	SAM1	0.000	
13	 O3'	-8.374	27.831	43.592	O.3	1	SAM1	0.000	
14	 C2'	-6.646	26.734	44.993	C.3	1	SAM1	0.000	
15	 O2'	-7.198	27.486	46.050	O.3	1	SAM1	0.000	
16	 C1'	-7.199	25.320	45.053	C.3	1	SAM1	0.000	
17	 OXT	-10.116	26.267	36.627	O.co2	1	SAM1	0.000	
18	  N1	-8.026	21.657	48.519	N.2	1	SAM1	0.000	
19	  C2	-8.849	22.386	47.755	C.2	1	SAM1	0.000	
20	  N3	-8.568	23.370	46.909	N.2	1	SAM1	0.000	
21	  C4	-7.239	23.546	46.820	C.2	1	SAM1	0.000	
22	  C5	-6.263	22.878	47.539	C.2	1	SAM1	0.000	
23	  C6	-6.695	21.902	48.458	C.2	1	SAM1	0.000	
24	  N6	-5.871	21.154	49.191	N.pl3	1	SAM1	0.000	
25	  N7	-5.001	23.332	47.187	N.2	1	SAM1	0.000	
26	  C8	-5.234	24.244	46.269	C.2	1	SAM1	0.000	
27	  N9	-6.573	24.437	46.021	N.2	1	SAM1	0.000	
28	  HA	-10.414	26.715	39.815	 H	1	SAM1	0.000	
29	 HB1	-7.903	26.178	38.291	 H	1	SAM1	0.000	
30	 HB2	-8.181	25.215	39.761	 H	1	SAM1	0.000	
31	 HG1	-8.560	27.345	40.979	 H	1	SAM1	0.000	
32	 HG2	-8.039	28.204	39.510	 H	1	SAM1	0.000	
33	 HE1	-5.276	27.443	38.422	 H	1	SAM1	0.000	
34	 HE2	-5.862	25.779	38.665	 H	1	SAM1	0.000	
35	 HE3	-4.323	26.296	39.394	 H	1	SAM1	0.000	
36	  H1	-9.992	24.330	38.113	 H	1	SAM1	0.000	
37	  H2	-11.445	24.817	38.723	 H	1	SAM1	0.000	
38	  H2	-9.896	22.137	47.839	 H	1	SAM1	0.000	
39	  H3	-10.255	24.301	39.741	 H	1	SAM1	0.000	
40	  H8	-4.452	24.788	45.760	 H	1	SAM1	0.000	
41	 H1'	-8.241	25.384	45.367	 H	1	SAM1	0.000	
42	 H2'	-5.569	26.853	45.116	 H	1	SAM1	0.000	
43	 H2'	-6.909	28.395	45.942	 H	1	SAM1	0.000	
44	 H3'	-6.423	27.884	43.163	 H	1	SAM1	0.000	
45	 H3'	-8.283	28.624	44.125	 H	1	SAM1	0.000	
46	 H4'	-8.206	25.806	42.353	 H	1	SAM1	0.000	
47	 H61	-4.872	21.271	49.105	 H	1	SAM1	0.000	
48	 H62	-6.246	20.470	49.833	 H	1	SAM1	0.000	
49	H5'1	-5.233	25.531	42.101	 H	1	SAM1	0.000	
50	H5'2	-6.506	24.805	41.091	 H	1	SAM1	0.000	
@<TRIPOS>BOND
1 1 2 1
2 1 36 1
3 1 37 1
4 1 39 1
5 2 3 1
6 2 5 1
7 2 28 1
8 3 4 ar
9 3 17 ar
10 5 6 1
11 5 29 1
12 5 30 1
13 6 7 1
14 6 31 1
15 6 32 1
16 7 8 1
17 7 9 1
18 8 33 1
19 8 34 1
20 8 35 1
21 9 10 1
22 9 49 1
23 9 50 1
24 10 11 1
25 10 12 1
26 10 46 1
27 11 16 1
28 12 13 1
29 12 14 1
30 12 44 1
31 13 45 1
32 14 15 1
33 14 16 1
34 14 42 1
35 15 43 1
36 16 27 1
37 16 41 1
38 18 19 ar
39 18 23 ar
40 19 20 ar
41 19 38 1
42 20 21 ar
43 21 22 ar
44 21 27 ar
45 22 23 ar
46 22 25 ar
47 23 24 1
48 24 47 1
49 24 48 1
50 25 26 ar
51 26 27 ar
52 26 40 1
@<TRIPOS>SUBSTRUCTURE
1	SAM1	1	GROUP	1 A	SAM
