@<TRIPOS>MOLECULE
5ZZD.A
51 53 1 0 0 
SMALL
USER_CHARGES


@<TRIPOS>ATOM
  1 N      -10.4480    24.7980    38.8830 N.4   1 SAM  -0.8530 
  2 H1      -9.9921    24.3300    38.1128 H     1 SAM   0.4500 
  3 H2     -11.4450    24.8175    38.7226 H     1 SAM   0.4500 
  4 H3     -10.2547    24.3011    39.7408 H     1 SAM   0.4500 
  5 CA      -9.9370    26.1870    38.9900 C.3   1 SAM   0.3170 
  6 HA     -10.4141    26.7152    39.8155 H     1 SAM   0.0800 
  7 C      -10.2480    26.9190    37.6760 C.2   1 SAM   0.9060 
  8 O      -10.6300    28.0980    37.7450 O.co2 1 SAM  -0.9000 
  9 CB      -8.4200    26.1470    39.2500 C.3   1 SAM  -0.1600 
 10 HB1     -7.9033    26.1783    38.2907 H     1 SAM   0.0800 
 11 HB2     -8.1808    25.2145    39.7612 H     1 SAM   0.0800 
 12 CG      -7.9350    27.2860    40.0880 C.3   1 SAM  -0.1525 
 13 HG1     -8.5596    27.3448    40.9794 H     1 SAM   0.0800 
 14 HG2     -8.0394    28.2043    39.5101 H     1 SAM   0.0800 
 15 SD      -6.2120    27.1390    40.6120 S.3   1 SAM   0.9775 
 16 CE      -5.3310    26.6120    39.1260 C.3   1 SAM  -0.2325 
 17 HE1     -5.2764    27.4426    38.4222 H     1 SAM   0.0800 
 18 HE2     -5.8621    25.7793    38.6649 H     1 SAM   0.0800 
 19 HE3     -4.3228    26.2961    39.3941 H     1 SAM   0.0800 
 20 C5'     -6.2290    25.6770    41.6840 C.3   1 SAM  -0.1525 
 21 H5'1    -5.2325    25.5311    42.1010 H     1 SAM   0.0800 
 22 H5'2    -6.5059    24.8053    41.0910 H     1 SAM   0.0800 
 23 C4'     -7.2220    25.8370    42.8210 C.3   1 SAM   0.2000 
 24 H4'     -8.2060    25.8060    42.3533 H     1 SAM   0.0800 
 25 O4'     -6.9890    24.7890    43.7800 O.3   1 SAM  -0.5600 
 26 C3'     -7.1160    27.1630    43.5960 C.3   1 SAM   0.2000 
 27 H3'     -6.4228    27.8840    43.1626 H     1 SAM   0.0800 
 28 O3'     -8.3740    27.8310    43.5920 O.3   1 SAM  -0.6800 
 29 H3'     -8.2832    28.6241    44.1252 H     1 SAM   0.4000 
 30 C2'     -6.6460    26.7340    44.9930 C.3   1 SAM   0.2000 
 31 H2'     -5.5695    26.8533    45.1155 H     1 SAM   0.0800 
 32 O2'     -7.1980    27.4860    46.0500 O.3   1 SAM  -0.6800 
 33 H2'     -8.1534    27.4147    45.9890 H     1 SAM   0.4000 
 34 C1'     -7.1990    25.3200    45.0530 C.3   1 SAM   0.5691 
 35 H1'     -8.2407    25.3840    45.3673 H     1 SAM   0.0800 
 36 OXT    -10.1160    26.2670    36.6270 O.co2 1 SAM  -0.9000 
 37 N1      -8.0260    21.6570    48.5190 N.2   1 SAM  -0.6610 
 38 C2      -8.8490    22.3860    47.7550 C.2   1 SAM   0.6010 
 39 H2      -9.8965    22.1368    47.8393 H     1 SAM   0.0600 
 40 N3      -8.5680    23.3700    46.9090 N.2   1 SAM  -0.6610 
 41 C4      -7.2390    23.5460    46.8200 C.2   1 SAM   0.5000 
 42 C5      -6.2630    22.8780    47.5390 C.2   1 SAM   0.4500 
 43 C6      -6.6950    21.9020    48.4580 C.2   1 SAM   0.6110 
 44 N6      -5.8710    21.1540    49.1910 N.2   1 SAM  -0.2000 
 45 H62     -6.2460    20.4703    49.8329 H     1 SAM   0.4000 
 46 H61     -4.8715    21.2707    49.1046 H     1 SAM   0.4000 
 47 N7      -5.0010    23.3320    47.1870 N.2   1 SAM  -0.6960 
 48 C8      -5.2340    24.2440    46.2690 C.3   1 SAM   0.4551 
 49 H81     -4.7519    23.9330    45.3422 H     1 SAM   0.0800 
 50 H82     -4.8044    25.1885    46.6028 H     1 SAM   0.0800 
 51 N9      -6.5730    24.4370    46.0210 N.pl3 1 SAM  -0.7882 
@<TRIPOS>BOND
  1   1   2  1   
  2   1   3  1   
  3   1   4  1   
  4   1   5  1   
  5   5   6  1   
  6   5   7  1   
  7   5   9  1   
  8   7   8  ar  
  9   7  36  ar  
 10   9  10  1   
 11   9  11  1   
 12   9  12  1   
 13  12  13  1   
 14  12  14  1   
 15  12  15  1   
 16  15  16  1   
 17  15  20  1   
 18  16  17  1   
 19  16  18  1   
 20  16  19  1   
 21  20  21  1   
 22  20  22  1   
 23  20  23  1   
 24  23  24  1   
 25  23  25  1   
 26  23  26  1   
 27  25  34  1   
 28  26  27  1   
 29  26  28  1   
 30  26  30  1   
 31  28  29  1   
 32  30  31  1   
 33  30  32  1   
 34  30  34  1   
 35  32  33  1   
 36  34  35  1   
 37  34  51  1   
 38  37  38  2   
 39  37  43  1   
 40  38  39  1   
 41  38  40  1   
 42  40  41  2   
 43  41  42  1   
 44  41  51  1   
 45  42  43  1   
 46  42  47  2   
 47  43  44  2   
 48  44  45  1   
 49  44  46  1   
 50  47  48  1   
 51  48  49  1   
 52  48  50  1   
 53  48  51  1   
@<TRIPOS>SUBSTRUCTURE
  1 SAM  25 GROUP 4 A **** 0

# MOE 2022.02 (io_trps.svl 2020.11)
