# created with PyMOL 2.5.0
@<TRIPOS>MOLECULE
5ZZD
27 29 1                 
SMALL
USER_CHARGES
@<TRIPOS>ATOM
1	   N	-10.448	24.798	38.883	N.3	1	SAM401	0.000	
2	  CA	-9.937	26.187	38.990	C.3	1	SAM401	0.000	
3	   C	-10.248	26.919	37.676	C.2	1	SAM401	0.000	
4	   O	-10.630	28.098	37.745	O.co2	1	SAM401	0.000	
5	  CB	-8.420	26.147	39.250	C.3	1	SAM401	0.000	
6	  CG	-7.935	27.286	40.088	C.3	1	SAM401	0.000	
7	  SD	-6.212	27.139	40.612	S.3	1	SAM401	0.000	
8	  CE	-5.331	26.612	39.126	C.3	1	SAM401	0.000	
9	 C5'	-6.229	25.677	41.684	C.3	1	SAM401	0.000	
10	 C4'	-7.222	25.837	42.821	C.3	1	SAM401	0.000	
11	 O4'	-6.989	24.789	43.780	O.3	1	SAM401	0.000	
12	 C3'	-7.116	27.163	43.596	C.3	1	SAM401	0.000	
13	 O3'	-8.374	27.831	43.592	O.3	1	SAM401	0.000	
14	 C2'	-6.646	26.734	44.993	C.3	1	SAM401	0.000	
15	 O2'	-7.198	27.486	46.050	O.3	1	SAM401	0.000	
16	 C1'	-7.199	25.320	45.053	C.3	1	SAM401	0.000	
17	 OXT	-10.116	26.267	36.627	O.co2	1	SAM401	0.000	
18	  N1	-8.026	21.657	48.519	N.2	1	SAM401	0.000	
19	  C2	-8.849	22.386	47.755	C.2	1	SAM401	0.000	
20	  N3	-8.568	23.370	46.909	N.2	1	SAM401	0.000	
21	  C4	-7.239	23.546	46.820	C.2	1	SAM401	0.000	
22	  C5	-6.263	22.878	47.539	C.2	1	SAM401	0.000	
23	  C6	-6.695	21.902	48.458	C.2	1	SAM401	0.000	
24	  N6	-5.871	21.154	49.191	N.pl3	1	SAM401	0.000	
25	  N7	-5.001	23.332	47.187	N.2	1	SAM401	0.000	
26	  C8	-5.234	24.244	46.269	C.2	1	SAM401	0.000	
27	  N9	-6.573	24.437	46.021	N.2	1	SAM401	0.000	
@<TRIPOS>BOND
1 1 2 1
2 2 3 1
3 2 5 1
4 3 4 ar
5 3 17 ar
6 5 6 1
7 6 7 1
8 7 8 1
9 7 9 1
10 9 10 1
11 10 11 1
12 10 12 1
13 11 16 1
14 12 13 1
15 12 14 1
16 14 15 1
17 14 16 1
18 16 27 1
19 18 19 ar
20 18 23 ar
21 19 20 ar
22 20 21 ar
23 21 22 ar
24 21 27 ar
25 22 23 ar
26 22 25 ar
27 23 24 1
28 25 26 ar
29 26 27 ar
@<TRIPOS>SUBSTRUCTURE
1	SAM401	1	GROUP	1 A	SAM
