@<TRIPOS>MOLECULE
5ZZD.B
51 53 1 0 0 
SMALL
USER_CHARGES


@<TRIPOS>ATOM
  1 N       36.3260    45.1830    18.1200 N.4   1 SAM  -0.8530 
  2 H1      35.4852    45.7046    17.9172 H     1 SAM   0.4500 
  3 H2      36.9064    45.1456    17.2943 H     1 SAM   0.4500 
  4 H3      36.8320    45.6372    18.8669 H     1 SAM   0.4500 
  5 CA      35.9650    43.8040    18.5340 C.3   1 SAM   0.3170 
  6 HA      36.8695    43.2369    18.7541 H     1 SAM   0.0800 
  7 C       35.1870    43.1210    17.3870 C.2   1 SAM   0.9060 
  8 O       34.3590    43.8020    16.7690 O.co2 1 SAM  -0.9000 
  9 CB      35.0840    43.8590    19.7910 C.3   1 SAM  -0.1600 
 10 HB1     34.0382    43.8612    19.4838 H     1 SAM   0.0800 
 11 HB2     35.3057    44.7789    20.3321 H     1 SAM   0.0800 
 12 CG      35.3090    42.7090    20.6990 C.3   1 SAM  -0.1525 
 13 HG1     36.3830    42.6057    20.8538 H     1 SAM   0.0800 
 14 HG2     34.9244    41.8132    20.2115 H     1 SAM   0.0800 
 15 SD      34.5250    42.8470    22.3090 S.3   1 SAM   0.9775 
 16 CE      32.9330    43.6320    22.0600 C.3   1 SAM  -0.2325 
 17 HE1     32.2530    42.9296    21.5780 H     1 SAM   0.0800 
 18 HE2     33.0563    44.5108    21.4271 H     1 SAM   0.0800 
 19 HE3     32.5216    43.9329    23.0235 H     1 SAM   0.0800 
 20 C5'     35.4960    44.1640    23.1110 C.3   1 SAM  -0.1525 
 21 H5'1    35.1872    44.2331    24.1541 H     1 SAM   0.0800 
 22 H5'2    35.2824    45.1059    22.6057 H     1 SAM   0.0800 
 23 C4'     36.9960    43.9260    23.0690 C.3   1 SAM   0.2000 
 24 H4'     37.2636    43.9868    22.0141 H     1 SAM   0.0800 
 25 O4'     37.6280    44.9090    23.9170 O.3   1 SAM  -0.5600 
 26 C3'     37.4750    42.5480    23.5780 C.3   1 SAM   0.2000 
 27 H3'     36.6767    41.8237    23.7396 H     1 SAM   0.0800 
 28 O3'     38.3330    41.9500    22.6110 O.3   1 SAM  -0.6800 
 29 H3'     38.6573    41.1256    22.9810 H     1 SAM   0.4000 
 30 C2'     38.1980    42.8870    24.8870 C.3   1 SAM   0.2000 
 31 H2'     37.5428    42.7481    25.7470 H     1 SAM   0.0800 
 32 O2'     39.3200    42.0870    25.1770 O.3   1 SAM  -0.6800 
 33 H2'     39.9350    42.1732    24.4449 H     1 SAM   0.4000 
 34 C1'     38.6860    44.2980    24.5830 C.3   1 SAM   0.5691 
 35 H1'     39.6177    44.2127    24.0238 H     1 SAM   0.0800 
 36 OXT     35.3630    41.9230    17.2340 O.co2 1 SAM  -0.9000 
 37 N1      41.9690    47.7420    26.5010 N.2   1 SAM  -0.6610 
 38 C2      41.9260    47.0880    25.3310 C.2   1 SAM   0.6010 
 39 H2      42.7103    47.3354    24.6310 H     1 SAM   0.0600 
 40 N3      41.0460    46.1710    24.9100 N.2   1 SAM  -0.6610 
 41 C4      40.0920    45.9580    25.8340 C.2   1 SAM   0.5000 
 42 C5      40.0100    46.5360    27.0860 C.2   1 SAM   0.4500 
 43 C6      40.9970    47.4870    27.4220 C.2   1 SAM   0.6110 
 44 N6      41.0260    48.1360    28.5860 N.2   1 SAM  -0.2000 
 45 H62     41.7576    48.8070    28.7720 H     1 SAM   0.4000 
 46 H61     40.3163    47.9567    29.2820 H     1 SAM   0.4000 
 47 N7      38.8820    46.0710    27.7600 N.2   1 SAM  -0.6960 
 48 C8      38.3360    45.2110    26.9310 C.3   1 SAM   0.4551 
 49 H81     37.3114    45.5240    26.7300 H     1 SAM   0.0800 
 50 H82     38.3297    44.2286    27.4032 H     1 SAM   0.0800 
 51 N9      39.0090    45.1190    25.7360 N.pl3 1 SAM  -0.7882 
@<TRIPOS>BOND
  1   1   2  1   
  2   1   3  1   
  3   1   4  1   
  4   1   5  1   
  5   5   6  1   
  6   5   7  1   
  7   5   9  1   
  8   7   8  ar  
  9   7  36  ar  
 10   9  10  1   
 11   9  11  1   
 12   9  12  1   
 13  12  13  1   
 14  12  14  1   
 15  12  15  1   
 16  15  16  1   
 17  15  20  1   
 18  16  17  1   
 19  16  18  1   
 20  16  19  1   
 21  20  21  1   
 22  20  22  1   
 23  20  23  1   
 24  23  24  1   
 25  23  25  1   
 26  23  26  1   
 27  25  34  1   
 28  26  27  1   
 29  26  28  1   
 30  26  30  1   
 31  28  29  1   
 32  30  31  1   
 33  30  32  1   
 34  30  34  1   
 35  32  33  1   
 36  34  35  1   
 37  34  51  1   
 38  37  38  2   
 39  37  43  1   
 40  38  39  1   
 41  38  40  1   
 42  40  41  2   
 43  41  42  1   
 44  41  51  1   
 45  42  43  1   
 46  42  47  2   
 47  43  44  2   
 48  44  45  1   
 49  44  46  1   
 50  47  48  1   
 51  48  49  1   
 52  48  50  1   
 53  48  51  1   
@<TRIPOS>SUBSTRUCTURE
  1 SAM  25 GROUP 4 B **** 0

# MOE 2022.02 (io_trps.svl 2020.11)
