# created with PyMOL 2.4.0
@<TRIPOS>MOLECULE
temp
50 52 1                 
SMALL
USER_CHARGES
@<TRIPOS>ATOM
1	   N	36.326	45.183	18.120	N.4	1	SAM1	0.000	
2	  CA	35.965	43.804	18.534	C.3	1	SAM1	0.000	
3	   C	35.187	43.121	17.387	C.2	1	SAM1	0.000	
4	   O	34.359	43.802	16.769	O.co2	1	SAM1	0.000	
5	  CB	35.084	43.859	19.791	C.3	1	SAM1	0.000	
6	  CG	35.309	42.709	20.699	C.3	1	SAM1	0.000	
7	  SD	34.525	42.847	22.309	S.3	1	SAM1	0.000	
8	  CE	32.933	43.632	22.060	C.3	1	SAM1	0.000	
9	 C5'	35.496	44.164	23.111	C.3	1	SAM1	0.000	
10	 C4'	36.996	43.926	23.069	C.3	1	SAM1	0.000	
11	 O4'	37.628	44.909	23.917	O.3	1	SAM1	0.000	
12	 C3'	37.475	42.548	23.578	C.3	1	SAM1	0.000	
13	 O3'	38.333	41.950	22.611	O.3	1	SAM1	0.000	
14	 C2'	38.198	42.887	24.887	C.3	1	SAM1	0.000	
15	 O2'	39.320	42.087	25.177	O.3	1	SAM1	0.000	
16	 C1'	38.686	44.298	24.583	C.3	1	SAM1	0.000	
17	 OXT	35.363	41.923	17.234	O.co2	1	SAM1	0.000	
18	  N1	41.969	47.742	26.501	N.2	1	SAM1	0.000	
19	  C2	41.926	47.088	25.331	C.2	1	SAM1	0.000	
20	  N3	41.046	46.171	24.910	N.2	1	SAM1	0.000	
21	  C4	40.092	45.958	25.834	C.2	1	SAM1	0.000	
22	  C5	40.010	46.536	27.086	C.2	1	SAM1	0.000	
23	  C6	40.997	47.487	27.422	C.2	1	SAM1	0.000	
24	  N6	41.026	48.136	28.586	N.pl3	1	SAM1	0.000	
25	  N7	38.882	46.071	27.760	N.2	1	SAM1	0.000	
26	  C8	38.336	45.211	26.931	C.2	1	SAM1	0.000	
27	  N9	39.009	45.119	25.736	N.2	1	SAM1	0.000	
28	  HA	36.869	43.237	18.754	 H	1	SAM1	0.000	
29	 HB1	34.038	43.861	19.484	 H	1	SAM1	0.000	
30	 HB2	35.306	44.779	20.332	 H	1	SAM1	0.000	
31	 HG1	36.383	42.606	20.854	 H	1	SAM1	0.000	
32	 HG2	34.924	41.813	20.212	 H	1	SAM1	0.000	
33	 HE1	32.253	42.930	21.578	 H	1	SAM1	0.000	
34	 HE2	33.056	44.511	21.427	 H	1	SAM1	0.000	
35	 HE3	32.522	43.933	23.024	 H	1	SAM1	0.000	
36	  H1	35.485	45.705	17.917	 H	1	SAM1	0.000	
37	  H2	36.906	45.146	17.294	 H	1	SAM1	0.000	
38	  H2	42.710	47.335	24.631	 H	1	SAM1	0.000	
39	  H3	36.832	45.637	18.867	 H	1	SAM1	0.000	
40	  H8	37.451	44.637	27.164	 H	1	SAM1	0.000	
41	 H1'	39.618	44.213	24.024	 H	1	SAM1	0.000	
42	 H2'	37.543	42.748	25.747	 H	1	SAM1	0.000	
43	 H2'	39.015	41.182	25.271	 H	1	SAM1	0.000	
44	 H3'	36.677	41.824	23.740	 H	1	SAM1	0.000	
45	 H3'	38.657	41.126	22.981	 H	1	SAM1	0.000	
46	 H4'	37.264	43.987	22.014	 H	1	SAM1	0.000	
47	 H61	40.316	47.957	29.282	 H	1	SAM1	0.000	
48	 H62	41.758	48.807	28.772	 H	1	SAM1	0.000	
49	H5'1	35.187	44.233	24.154	 H	1	SAM1	0.000	
50	H5'2	35.282	45.106	22.606	 H	1	SAM1	0.000	
@<TRIPOS>BOND
1 1 2 1
2 1 36 1
3 1 37 1
4 1 39 1
5 2 3 1
6 2 5 1
7 2 28 1
8 3 4 ar
9 3 17 ar
10 5 6 1
11 5 29 1
12 5 30 1
13 6 7 1
14 6 31 1
15 6 32 1
16 7 8 1
17 7 9 1
18 8 33 1
19 8 34 1
20 8 35 1
21 9 10 1
22 9 49 1
23 9 50 1
24 10 11 1
25 10 12 1
26 10 46 1
27 11 16 1
28 12 13 1
29 12 14 1
30 12 44 1
31 13 45 1
32 14 15 1
33 14 16 1
34 14 42 1
35 15 43 1
36 16 27 1
37 16 41 1
38 18 19 ar
39 18 23 ar
40 19 20 ar
41 19 38 1
42 20 21 ar
43 21 22 ar
44 21 27 ar
45 22 23 ar
46 22 25 ar
47 23 24 1
48 24 47 1
49 24 48 1
50 25 26 ar
51 26 27 ar
52 26 40 1
@<TRIPOS>SUBSTRUCTURE
1	SAM1	1	GROUP	1 B	SAM
