# created with PyMOL 2.5.0
@<TRIPOS>MOLECULE
5ZZD
27 29 1                 
SMALL
USER_CHARGES
@<TRIPOS>ATOM
1	   N	36.326	45.183	18.120	N.3	1	SAM401	0.000	
2	  CA	35.965	43.804	18.534	C.3	1	SAM401	0.000	
3	   C	35.187	43.121	17.387	C.2	1	SAM401	0.000	
4	   O	34.359	43.802	16.769	O.co2	1	SAM401	0.000	
5	  CB	35.084	43.859	19.791	C.3	1	SAM401	0.000	
6	  CG	35.309	42.709	20.699	C.3	1	SAM401	0.000	
7	  SD	34.525	42.847	22.309	S.3	1	SAM401	0.000	
8	  CE	32.933	43.632	22.060	C.3	1	SAM401	0.000	
9	 C5'	35.496	44.164	23.111	C.3	1	SAM401	0.000	
10	 C4'	36.996	43.926	23.069	C.3	1	SAM401	0.000	
11	 O4'	37.628	44.909	23.917	O.3	1	SAM401	0.000	
12	 C3'	37.475	42.548	23.578	C.3	1	SAM401	0.000	
13	 O3'	38.333	41.950	22.611	O.3	1	SAM401	0.000	
14	 C2'	38.198	42.887	24.887	C.3	1	SAM401	0.000	
15	 O2'	39.320	42.087	25.177	O.3	1	SAM401	0.000	
16	 C1'	38.686	44.298	24.583	C.3	1	SAM401	0.000	
17	 OXT	35.363	41.923	17.234	O.co2	1	SAM401	0.000	
18	  N1	41.969	47.742	26.501	N.2	1	SAM401	0.000	
19	  C2	41.926	47.088	25.331	C.2	1	SAM401	0.000	
20	  N3	41.046	46.171	24.910	N.2	1	SAM401	0.000	
21	  C4	40.092	45.958	25.834	C.2	1	SAM401	0.000	
22	  C5	40.010	46.536	27.086	C.2	1	SAM401	0.000	
23	  C6	40.997	47.487	27.422	C.2	1	SAM401	0.000	
24	  N6	41.026	48.136	28.586	N.pl3	1	SAM401	0.000	
25	  N7	38.882	46.071	27.760	N.2	1	SAM401	0.000	
26	  C8	38.336	45.211	26.931	C.2	1	SAM401	0.000	
27	  N9	39.009	45.119	25.736	N.2	1	SAM401	0.000	
@<TRIPOS>BOND
1 1 2 1
2 2 3 1
3 2 5 1
4 3 4 ar
5 3 17 ar
6 5 6 1
7 6 7 1
8 7 8 1
9 7 9 1
10 9 10 1
11 10 11 1
12 10 12 1
13 11 16 1
14 12 13 1
15 12 14 1
16 14 15 1
17 14 16 1
18 16 27 1
19 18 19 ar
20 18 23 ar
21 19 20 ar
22 20 21 ar
23 21 22 ar
24 21 27 ar
25 22 23 ar
26 22 25 ar
27 23 24 1
28 25 26 ar
29 26 27 ar
@<TRIPOS>SUBSTRUCTURE
1	SAM401	1	GROUP	1 B	SAM
