# created with PyMOL 2.5.0
@<TRIPOS>MOLECULE
5KQS
58 62 1                 
SMALL
USER_CHARGES
@<TRIPOS>ATOM
1	 CM7	53.731	10.213	-6.316	C.3	1	M7G301	0.000	
2	 CM7	53.710	10.104	-6.141	C.3	1	M7G301	0.000	
3	  PA	50.698	7.559	-2.936	P.3	1	M7G301	0.000	
4	  PA	50.248	7.679	-3.247	P.3	1	M7G301	0.000	
5	  PB	48.404	5.779	-2.849	P.3	1	M7G301	0.000	
6	  PB	52.514	6.043	-2.431	P.3	1	M7G301	0.000	
7	 C5'	49.602	9.554	-1.591	C.3	1	M7G301	0.000	
8	 C5'	49.790	9.576	-1.532	C.3	1	M7G301	0.000	
9	 O5'	50.509	9.142	-2.565	O.3	1	M7G301	0.000	
10	 O5'	49.762	9.208	-2.884	O.3	1	M7G301	0.000	
11	 C4'	49.783	11.052	-1.459	C.3	1	M7G301	0.000	
12	 C4'	49.878	11.088	-1.345	C.3	1	M7G301	0.000	
13	 O4'	51.371	11.312	-1.448	O.3	1	M7G301	0.000	
14	 O4'	51.434	11.510	-1.241	O.3	1	M7G301	0.000	
15	 C3'	49.361	11.690	-2.526	C.3	1	M7G301	0.000	
16	 C3'	49.371	11.760	-2.353	C.3	1	M7G301	0.000	
17	 O3'	47.903	12.006	-2.468	O.3	1	M7G301	0.000	
18	 O3'	47.962	12.147	-2.067	O.3	1	M7G301	0.000	
19	 C2'	50.196	12.985	-2.532	C.3	1	M7G301	0.000	
20	 C2'	50.222	13.040	-2.452	C.3	1	M7G301	0.000	
21	 O2'	49.770	13.880	-1.597	O.3	1	M7G301	0.000	
22	 O2'	49.792	13.981	-1.567	O.3	1	M7G301	0.000	
23	 C1'	51.564	12.433	-2.106	C.3	1	M7G301	0.000	
24	 C1'	51.612	12.555	-2.015	C.3	1	M7G301	0.000	
25	  N1	56.085	13.903	-4.443	N.2	1	M7G301	0.000	
26	  N1	56.127	13.895	-4.592	N.2	1	M7G301	0.000	
27	 O1A	51.785	7.476	-3.983	O.co2	1	M7G301	0.000	
28	 O1A	49.134	6.705	-2.963	O.co2	1	M7G301	0.000	
29	 O1B	47.148	5.559	-3.658	O.co2	1	M7G301	0.000	
30	 O1B	51.712	4.852	-2.903	O.co2	1	M7G301	0.000	
31	  C2	55.405	14.468	-3.273	C.2	1	M7G301	0.000	
32	  C2	55.488	14.538	-3.439	C.2	1	M7G301	0.000	
33	  N2	55.934	15.589	-2.540	N.pl3	1	M7G301	0.000	
34	  N2	56.068	15.708	-2.818	N.pl3	1	M7G301	0.000	
35	 O2A	51.089	6.795	-1.695	O.co2	1	M7G301	0.000	
36	 O2A	50.669	7.608	-4.697	O.co2	1	M7G301	0.000	
37	 O2B	48.028	6.138	-1.427	O.co2	1	M7G301	0.000	
38	 O2B	53.148	5.736	-1.094	O.co2	1	M7G301	0.000	
39	  N3	54.150	13.886	-2.813	N.2	1	M7G301	0.000	
40	  N3	54.241	13.994	-2.898	N.2	1	M7G301	0.000	
41	 O3A	49.271	7.005	-3.534	O.3	1	M7G301	0.000	
42	 O3A	51.528	7.352	-2.263	O.3	1	M7G301	0.000	
43	 O3B	49.239	4.519	-2.841	O.co2	1	M7G301	0.000	
44	 O3B	53.587	6.370	-3.444	O.co2	1	M7G301	0.000	
45	  C4	53.611	12.756	-3.547	C.2	1	M7G301	0.000	
46	  C4	53.655	12.813	-3.527	C.2	1	M7G301	0.000	
47	  C5	54.243	12.177	-4.690	C.2	1	M7G301	0.000	
48	  C5	54.257	12.163	-4.651	C.2	1	M7G301	0.000	
49	  C6	55.547	12.776	-5.169	C.2	1	M7G301	0.000	
50	  C6	55.550	12.724	-5.213	C.2	1	M7G301	0.000	
51	  O6	56.105	12.327	-6.114	O.2	1	M7G301	0.000	
52	  O6	56.075	12.211	-6.145	O.2	1	M7G301	0.000	
53	  N7	53.457	11.076	-5.183	N.2	1	M7G301	0.000	
54	  N7	53.460	11.032	-5.053	N.2	1	M7G301	0.000	
55	  C8	52.264	10.976	-4.265	C.2	1	M7G301	0.000	
56	  C8	52.288	10.984	-4.101	C.2	1	M7G301	0.000	
57	  N9	52.407	12.081	-3.250	N.2	1	M7G301	0.000	
58	  N9	52.453	12.148	-3.151	N.2	1	M7G301	0.000	
@<TRIPOS>BOND
1 1 53 1
2 2 54 1
3 3 9 1
4 3 27 1
5 3 35 2
6 3 41 1
7 4 10 1
8 4 28 1
9 4 36 2
10 4 42 1
11 5 29 1
12 5 37 1
13 5 41 1
14 5 43 2
15 6 30 1
16 6 38 1
17 6 42 1
18 6 44 2
19 7 9 1
20 7 11 1
21 8 10 1
22 8 12 1
23 11 13 1
24 11 15 1
25 12 14 1
26 12 16 1
27 13 23 1
28 14 24 1
29 15 17 1
30 15 19 1
31 16 18 1
32 16 20 1
33 19 21 1
34 19 23 1
35 20 22 1
36 20 24 1
37 23 57 1
38 24 58 1
39 25 31 ar
40 25 49 ar
41 26 32 ar
42 26 50 ar
43 31 33 1
44 31 39 ar
45 32 34 1
46 32 40 ar
47 39 45 ar
48 40 46 ar
49 45 47 ar
50 45 57 ar
51 46 48 ar
52 46 58 ar
53 47 49 ar
54 47 53 ar
55 48 50 ar
56 48 54 ar
57 49 51 2
58 50 52 2
59 53 55 ar
60 54 56 ar
61 55 57 ar
62 56 58 ar
@<TRIPOS>SUBSTRUCTURE
1	M7G301	1	GROUP	1 A	M7G
