# created with PyMOL 2.5.2
@<TRIPOS>MOLECULE
temp
29 31 1                 
SMALL
USER_CHARGES
@<TRIPOS>ATOM
1	 CM7	53.731	10.213	-6.316	C.3	1	M7G301	0.000	
2	  PA	50.698	7.559	-2.936	P.3	1	M7G301	0.000	
3	  PB	48.404	5.779	-2.849	P.3	1	M7G301	0.000	
4	 C5'	49.602	9.554	-1.591	C.3	1	M7G301	0.000	
5	 O5'	50.509	9.142	-2.565	O.3	1	M7G301	0.000	
6	 C4'	49.783	11.052	-1.459	C.3	1	M7G301	0.000	
7	 O4'	51.371	11.312	-1.448	O.3	1	M7G301	0.000	
8	 C3'	49.361	11.690	-2.526	C.3	1	M7G301	0.000	
9	 O3'	47.903	12.006	-2.468	O.3	1	M7G301	0.000	
10	 C2'	50.196	12.985	-2.532	C.3	1	M7G301	0.000	
11	 O2'	49.770	13.880	-1.597	O.3	1	M7G301	0.000	
12	 C1'	51.564	12.433	-2.106	C.3	1	M7G301	0.000	
13	  N1	56.085	13.903	-4.443	N.2	1	M7G301	0.000	
14	 O1A	51.785	7.476	-3.983	O.co2	1	M7G301	0.000	
15	 O1B	47.148	5.559	-3.658	O.co2	1	M7G301	0.000	
16	  C2	55.405	14.468	-3.273	C.2	1	M7G301	0.000	
17	  N2	55.934	15.589	-2.540	N.pl3	1	M7G301	0.000	
18	 O2A	51.089	6.795	-1.695	O.co2	1	M7G301	0.000	
19	 O2B	48.028	6.138	-1.427	O.co2	1	M7G301	0.000	
20	  N3	54.150	13.886	-2.813	N.2	1	M7G301	0.000	
21	 O3A	49.271	7.005	-3.534	O.3	1	M7G301	0.000	
22	 O3B	49.239	4.519	-2.841	O.co2	1	M7G301	0.000	
23	  C4	53.611	12.756	-3.547	C.2	1	M7G301	0.000	
24	  C5	54.243	12.177	-4.690	C.2	1	M7G301	0.000	
25	  C6	55.547	12.776	-5.169	C.2	1	M7G301	0.000	
26	  O6	56.105	12.327	-6.114	O.2	1	M7G301	0.000	
27	  N7	53.457	11.076	-5.183	N.2	1	M7G301	0.000	
28	  C8	52.264	10.976	-4.265	C.2	1	M7G301	0.000	
29	  N9	52.407	12.081	-3.250	N.2	1	M7G301	0.000	
@<TRIPOS>BOND
1 1 27 1
2 2 5 1
3 2 14 1
4 2 18 2
5 2 21 1
6 3 15 1
7 3 19 1
8 3 21 1
9 3 22 2
10 4 5 1
11 4 6 1
12 6 7 1
13 6 8 1
14 7 12 1
15 8 9 1
16 8 10 1
17 10 11 1
18 10 12 1
19 12 29 1
20 13 16 ar
21 13 25 ar
22 16 17 1
23 16 20 ar
24 20 23 ar
25 23 24 ar
26 23 29 ar
27 24 25 ar
28 24 27 ar
29 25 26 2
30 27 28 ar
31 28 29 ar
@<TRIPOS>SUBSTRUCTURE
1	M7G301	1	GROUP	1 A	M7G
