@<TRIPOS>MOLECULE
temp.A
43 45 1 0 0 
SMALL
USER_CHARGES


@<TRIPOS>ATOM
  1 CM7     53.7310    10.2130    -6.3160 C.3   1 M7G   0.1061 
  2 HM71    52.9319     9.4783    -6.4147 H     1 M7G   0.0800 
  3 HM72    54.6797     9.6993    -6.1604 H     1 M7G   0.0800 
  4 HM73    53.7873    10.8128    -7.2244 H     1 M7G   0.0800 
  5 PA      50.6980     7.5590    -2.9360 P.3   1 M7G   1.4424 
  6 PB      48.4040     5.7790    -2.8490 P.3   1 M7G   1.3712 
  7 C5'     49.6020     9.5540    -1.5910 C.3   1 M7G   0.1200 
  8 H5'1    49.8154     9.0617    -0.6422 H     1 M7G   0.0800 
  9 H5'2    48.5829     9.3214    -1.8999 H     1 M7G   0.0800 
 10 O5'     50.5090     9.1420    -2.5650 O.3   1 M7G  -0.5512 
 11 C4'     49.7830    11.0520    -1.4590 C.3   1 M7G   0.2000 
 12 H4'     49.2425    11.3901    -0.5749 H     1 M7G   0.0800 
 13 O4'     51.3710    11.3120    -1.4480 O.3   1 M7G  -0.5600 
 14 C3'     49.3610    11.6900    -2.5260 C.3   1 M7G   0.2000 
 15 H3'     49.4813    11.0883    -3.4269 H     1 M7G   0.0800 
 16 O3'     47.9030    12.0060    -2.4680 O.3   1 M7G  -0.6800 
 17 H3'     47.4272    11.1735    -2.4204 H     1 M7G   0.4000 
 18 C2'     50.1960    12.9850    -2.5320 C.3   1 M7G   0.2000 
 19 H2'     50.1603    13.5183    -3.4820 H     1 M7G   0.0800 
 20 O2'     49.7700    13.8800    -1.5970 O.3   1 M7G  -0.6800 
 21 H2'     48.8775    14.1434    -1.8328 H     1 M7G   0.4000 
 22 C1'     51.5640    12.4330    -2.1060 C.3   1 M7G   0.5461 
 23 H1'     52.0523    13.2087    -1.5161 H     1 M7G   0.0800 
 24 N1      56.0850    13.9030    -4.4430 N.2   1 M7G  -0.6610 
 25 O1A     51.7850     7.4760    -3.9830 O.co2 1 M7G  -0.9500 
 26 O1B     47.1480     5.5590    -3.6580 O.co2 1 M7G  -1.0333 
 27 C2      55.4050    14.4680    -3.2730 C.2   1 M7G   0.7110 
 28 N2      55.9340    15.5890    -2.5400 N.pl3 1 M7G  -0.8500 
 29 H21     56.8037    16.0150    -2.8269 H     1 M7G   0.4000 
 30 H22     55.4354    15.9493    -1.7390 H     1 M7G   0.4000 
 31 O2A     51.0890     6.7950    -1.6950 O.co2 1 M7G  -0.9500 
 32 O2B     48.0280     6.1380    -1.4270 O.co2 1 M7G  -1.0333 
 33 N3      54.1500    13.8860    -2.8130 N.2   1 M7G  -0.6610 
 34 O3A     49.2710     7.0050    -3.5340 O.3   1 M7G  -0.5424 
 35 O3B     49.2390     4.5190    -2.8410 O.co2 1 M7G  -1.0333 
 36 C4      53.6110    12.7560    -3.5470 C.2   1 M7G   0.7790 
 37 C5      54.2430    12.1770    -4.6900 C.2   1 M7G   0.4000 
 38 C6      55.5470    12.7760    -5.1690 C.2   1 M7G   0.7810 
 39 O6      56.1050    12.3270    -6.1140 O.2   1 M7G  -0.5700 
 40 N7      53.4570    11.0760    -5.1830 N.2   1 M7G  -0.0751 
 41 C8      52.2640    10.9760    -4.2650 C.2   1 M7G   0.6690 
 42 H8      51.4635    10.2534    -4.3237 H     1 M7G   0.0600 
 43 N9      52.4070    12.0810    -3.2500 N.2   1 M7G  -0.0751 
@<TRIPOS>BOND
  1   1   2  1   
  2   1   3  1   
  3   1   4  1   
  4   1  40  1   
  5   5  10  1   
  6   5  25  ar  
  7   5  31  ar  
  8   5  34  1   
  9   6  26  ar  
 10   6  32  ar  
 11   6  34  1   
 12   6  35  ar  
 13   7   8  1   
 14   7   9  1   
 15   7  10  1   
 16   7  11  1   
 17  11  12  1   
 18  11  13  1   
 19  11  14  1   
 20  13  22  1   
 21  14  15  1   
 22  14  16  1   
 23  14  18  1   
 24  16  17  1   
 25  18  19  1   
 26  18  20  1   
 27  18  22  1   
 28  20  21  1   
 29  22  23  1   
 30  22  43  1   
 31  24  27  2   
 32  24  38  1   
 33  27  28  1   
 34  27  33  1   
 35  28  29  1   
 36  28  30  1   
 37  33  36  2   
 38  36  37  1   
 39  36  43  1   
 40  37  38  1   
 41  37  40  2   
 42  38  39  2   
 43  40  41  1   
 44  41  42  1   
 45  41  43  2   
@<TRIPOS>SUBSTRUCTURE
  1 M7G  41 GROUP 4 A **** 0

# MOE 2022.02 (io_trps.svl 2020.11)
