# created with PyMOL 2.4.0
@<TRIPOS>MOLECULE
temp
50 52 1                 
SMALL
USER_CHARGES
@<TRIPOS>ATOM
1	   N	40.904	-4.660	1.296	N.4	1	SAM1	0.000	
2	  CA	41.440	-4.956	-0.040	C.3	1	SAM1	0.000	
3	   C	42.418	-6.117	0.044	C.2	1	SAM1	0.000	
4	   O	42.851	-6.669	-0.978	O.co2	1	SAM1	0.000	
5	  CB	42.025	-3.716	-0.709	C.3	1	SAM1	0.000	
6	  CG	40.982	-2.609	-0.830	C.3	1	SAM1	0.000	
7	  SD	41.341	-1.399	-2.128	S.3	1	SAM1	0.000	
8	  CE	42.145	-0.086	-1.173	C.3	1	SAM1	0.000	
9	 C5'	39.685	-0.724	-2.394	C.3	1	SAM1	0.000	
10	 C4'	38.947	-1.311	-3.586	C.3	1	SAM1	0.000	
11	 O4'	37.682	-0.682	-3.585	O.3	1	SAM1	0.000	
12	 C3'	39.570	-0.990	-4.944	C.3	1	SAM1	0.000	
13	 O3'	39.824	-2.195	-5.637	O.3	1	SAM1	0.000	
14	 C2'	38.521	-0.175	-5.678	C.3	1	SAM1	0.000	
15	 O2'	38.404	-0.480	-7.059	O.3	1	SAM1	0.000	
16	 C1'	37.249	-0.519	-4.921	C.3	1	SAM1	0.000	
17	 OXT	42.770	-6.542	1.147	O.co2	1	SAM1	0.000	
18	  N1	32.218	0.239	-5.664	N.2	1	SAM1	0.000	
19	  C2	32.903	-0.944	-5.533	C.2	1	SAM1	0.000	
20	  N3	34.262	-0.945	-5.345	N.2	1	SAM1	0.000	
21	  C4	34.919	0.243	-5.267	C.2	1	SAM1	0.000	
22	  C5	34.254	1.445	-5.390	C.2	1	SAM1	0.000	
23	  C6	32.883	1.441	-5.583	C.2	1	SAM1	0.000	
24	  N6	32.213	2.576	-5.728	N.pl3	1	SAM1	0.000	
25	  N7	35.172	2.445	-5.260	N.2	1	SAM1	0.000	
26	  C8	36.391	1.888	-5.080	C.2	1	SAM1	0.000	
27	  N9	36.234	0.521	-5.076	N.2	1	SAM1	0.000	
28	  HA	40.622	-5.266	-0.690	 H	1	SAM1	0.000	
29	 HB1	42.377	-3.983	-1.705	 H	1	SAM1	0.000	
30	 HB2	42.862	-3.352	-0.113	 H	1	SAM1	0.000	
31	 HG1	40.928	-2.083	0.123	 H	1	SAM1	0.000	
32	 HG2	40.018	-3.069	-1.047	 H	1	SAM1	0.000	
33	 HE1	43.170	-0.378	-0.945	 H	1	SAM1	0.000	
34	 HE2	41.598	0.075	-0.244	 H	1	SAM1	0.000	
35	 HE3	42.151	0.835	-1.755	 H	1	SAM1	0.000	
36	  H1	41.657	-4.372	1.905	 H	1	SAM1	0.000	
37	  H2	40.464	-5.487	1.673	 H	1	SAM1	0.000	
38	  H2	32.368	-1.881	-5.578	 H	1	SAM1	0.000	
39	  H3	40.223	-3.917	1.229	 H	1	SAM1	0.000	
40	  H8	37.322	2.421	-4.961	 H	1	SAM1	0.000	
41	 H1'	36.758	-1.418	-5.293	 H	1	SAM1	0.000	
42	 H2'	38.769	0.886	-5.687	 H	1	SAM1	0.000	
43	 H2'	38.184	-1.411	-7.133	 H	1	SAM1	0.000	
44	 H3'	40.513	-0.451	-4.856	 H	1	SAM1	0.000	
45	 H3'	40.173	-1.965	-6.501	 H	1	SAM1	0.000	
46	 H4'	38.949	-2.396	-3.478	 H	1	SAM1	0.000	
47	 H61	32.703	3.459	-5.698	 H	1	SAM1	0.000	
48	 H62	31.213	2.558	-5.868	 H	1	SAM1	0.000	
49	H5'1	39.777	0.351	-2.547	 H	1	SAM1	0.000	
50	H5'2	39.092	-0.915	-1.499	 H	1	SAM1	0.000	
@<TRIPOS>BOND
1 1 2 1
2 1 36 1
3 1 37 1
4 1 39 1
5 2 3 1
6 2 5 1
7 2 28 1
8 3 4 ar
9 3 17 ar
10 5 6 1
11 5 29 1
12 5 30 1
13 6 7 1
14 6 31 1
15 6 32 1
16 7 8 1
17 7 9 1
18 8 33 1
19 8 34 1
20 8 35 1
21 9 10 1
22 9 49 1
23 9 50 1
24 10 11 1
25 10 12 1
26 10 46 1
27 11 16 1
28 12 13 1
29 12 14 1
30 12 44 1
31 13 45 1
32 14 15 1
33 14 16 1
34 14 42 1
35 15 43 1
36 16 27 1
37 16 41 1
38 18 19 ar
39 18 23 ar
40 19 20 ar
41 19 38 1
42 20 21 ar
43 21 22 ar
44 21 27 ar
45 22 23 ar
46 22 25 ar
47 23 24 1
48 24 47 1
49 24 48 1
50 25 26 ar
51 26 27 ar
52 26 40 1
@<TRIPOS>SUBSTRUCTURE
1	SAM1	1	GROUP	1 A	SAM
