@<TRIPOS>MOLECULE
5KQS.A
51 53 1 0 0 
SMALL
USER_CHARGES


@<TRIPOS>ATOM
  1 N       40.9040    -4.6600     1.2960 N.4   1 SAM  -0.8530 
  2 H1      41.6569    -4.3720     1.9046 H     1 SAM   0.4500 
  3 H2      40.4639    -5.4872     1.6731 H     1 SAM   0.4500 
  4 H3      40.2228    -3.9173     1.2285 H     1 SAM   0.4500 
  5 CA      41.4400    -4.9560    -0.0400 C.3   1 SAM   0.3170 
  6 HA      40.6217    -5.2658    -0.6900 H     1 SAM   0.0800 
  7 C       42.4180    -6.1170     0.0440 C.2   1 SAM   0.9060 
  8 O       42.8510    -6.6690    -0.9780 O.co2 1 SAM  -0.9000 
  9 CB      42.0250    -3.7160    -0.7090 C.3   1 SAM  -0.1600 
 10 HB1     42.3774    -3.9827    -1.7054 H     1 SAM   0.0800 
 11 HB2     42.8619    -3.3521    -0.1130 H     1 SAM   0.0800 
 12 CG      40.9820    -2.6090    -0.8300 C.3   1 SAM  -0.1525 
 13 HG1     40.9277    -2.0833     0.1233 H     1 SAM   0.0800 
 14 HG2     40.0177    -3.0686    -1.0469 H     1 SAM   0.0800 
 15 SD      41.3410    -1.3990    -2.1280 S.3   1 SAM   0.9775 
 16 CE      42.1450    -0.0860    -1.1730 C.3   1 SAM  -0.2325 
 17 HE1     43.1701    -0.3782    -0.9451 H     1 SAM   0.0800 
 18 HE2     41.5979     0.0747    -0.2440 H     1 SAM   0.0800 
 19 HE3     42.1507     0.8354    -1.7553 H     1 SAM   0.0800 
 20 C5'     39.6850    -0.7240    -2.3940 C.3   1 SAM  -0.1525 
 21 H5'1    39.7766     0.3514    -2.5466 H     1 SAM   0.0800 
 22 H5'2    39.0922    -0.9148    -1.4994 H     1 SAM   0.0800 
 23 C4'     38.9470    -1.3110    -3.5860 C.3   1 SAM   0.2000 
 24 H4'     38.9493    -2.3956    -3.4780 H     1 SAM   0.0800 
 25 O4'     37.6820    -0.6820    -3.5850 O.3   1 SAM  -0.5600 
 26 C3'     39.5700    -0.9900    -4.9440 C.3   1 SAM   0.2000 
 27 H3'     40.5131    -0.4505    -4.8564 H     1 SAM   0.0800 
 28 O3'     39.8240    -2.1950    -5.6370 O.3   1 SAM  -0.6800 
 29 H3'     40.1734    -1.9648    -6.5010 H     1 SAM   0.4000 
 30 C2'     38.5210    -0.1750    -5.6780 C.3   1 SAM   0.2000 
 31 H2'     38.7687     0.8864    -5.6874 H     1 SAM   0.0800 
 32 O2'     38.4040    -0.4800    -7.0590 O.3   1 SAM  -0.6800 
 33 H2'     38.1839    -1.4115    -7.1329 H     1 SAM   0.4000 
 34 C1'     37.2490    -0.5190    -4.9210 C.3   1 SAM   0.5691 
 35 H1'     36.7584    -1.4183    -5.2935 H     1 SAM   0.0800 
 36 OXT     42.7700    -6.5420     1.1470 O.co2 1 SAM  -0.9000 
 37 N1      32.2180     0.2390    -5.6640 N.2   1 SAM  -0.6610 
 38 C2      32.9030    -0.9440    -5.5330 C.2   1 SAM   0.6010 
 39 H2      32.3677    -1.8809    -5.5783 H     1 SAM   0.0600 
 40 N3      34.2620    -0.9450    -5.3450 N.2   1 SAM  -0.6610 
 41 C4      34.9190     0.2430    -5.2670 C.2   1 SAM   0.5000 
 42 C5      34.2540     1.4450    -5.3900 C.2   1 SAM   0.4500 
 43 C6      32.8830     1.4410    -5.5830 C.2   1 SAM   0.6110 
 44 N6      32.2130     2.5760    -5.7280 N.2   1 SAM  -0.2000 
 45 H62     31.2129     2.5577    -5.8681 H     1 SAM   0.4000 
 46 H61     32.7027     3.4588    -5.6984 H     1 SAM   0.4000 
 47 N7      35.1720     2.4450    -5.2600 N.2   1 SAM  -0.6960 
 48 C8      36.3910     1.8880    -5.0800 C.3   1 SAM   0.4551 
 49 H81     36.8112     2.2155    -4.1291 H     1 SAM   0.0800 
 50 H82     37.0563     2.1822    -5.8918 H     1 SAM   0.0800 
 51 N9      36.2340     0.5210    -5.0760 N.pl3 1 SAM  -0.7882 
@<TRIPOS>BOND
  1   1   2  1   
  2   1   3  1   
  3   1   4  1   
  4   1   5  1   
  5   5   6  1   
  6   5   7  1   
  7   5   9  1   
  8   7   8  ar  
  9   7  36  ar  
 10   9  10  1   
 11   9  11  1   
 12   9  12  1   
 13  12  13  1   
 14  12  14  1   
 15  12  15  1   
 16  15  16  1   
 17  15  20  1   
 18  16  17  1   
 19  16  18  1   
 20  16  19  1   
 21  20  21  1   
 22  20  22  1   
 23  20  23  1   
 24  23  24  1   
 25  23  25  1   
 26  23  26  1   
 27  25  34  1   
 28  26  27  1   
 29  26  28  1   
 30  26  30  1   
 31  28  29  1   
 32  30  31  1   
 33  30  32  1   
 34  30  34  1   
 35  32  33  1   
 36  34  35  1   
 37  34  51  1   
 38  37  38  2   
 39  37  43  1   
 40  38  39  1   
 41  38  40  1   
 42  40  41  2   
 43  41  42  1   
 44  41  51  1   
 45  42  43  1   
 46  42  47  2   
 47  43  44  2   
 48  44  45  1   
 49  44  46  1   
 50  47  48  1   
 51  48  49  1   
 52  48  50  1   
 53  48  51  1   
@<TRIPOS>SUBSTRUCTURE
  1 SAM  25 GROUP 4 A **** 0

# MOE 2022.02 (io_trps.svl 2020.11)
