# created with PyMOL 2.5.0
@<TRIPOS>MOLECULE
5KQS
27 29 1                 
SMALL
USER_CHARGES
@<TRIPOS>ATOM
1	   N	40.904	-4.660	1.296	N.3	1	SAM307	0.000	
2	  CA	41.440	-4.956	-0.040	C.3	1	SAM307	0.000	
3	   C	42.418	-6.117	0.044	C.2	1	SAM307	0.000	
4	   O	42.851	-6.669	-0.978	O.co2	1	SAM307	0.000	
5	  CB	42.025	-3.716	-0.709	C.3	1	SAM307	0.000	
6	  CG	40.982	-2.609	-0.830	C.3	1	SAM307	0.000	
7	  SD	41.341	-1.399	-2.128	S.3	1	SAM307	0.000	
8	  CE	42.145	-0.086	-1.173	C.3	1	SAM307	0.000	
9	 C5'	39.685	-0.724	-2.394	C.3	1	SAM307	0.000	
10	 C4'	38.947	-1.311	-3.586	C.3	1	SAM307	0.000	
11	 O4'	37.682	-0.682	-3.585	O.3	1	SAM307	0.000	
12	 C3'	39.570	-0.990	-4.944	C.3	1	SAM307	0.000	
13	 O3'	39.824	-2.195	-5.637	O.3	1	SAM307	0.000	
14	 C2'	38.521	-0.175	-5.678	C.3	1	SAM307	0.000	
15	 O2'	38.404	-0.480	-7.059	O.3	1	SAM307	0.000	
16	 C1'	37.249	-0.519	-4.921	C.3	1	SAM307	0.000	
17	 OXT	42.770	-6.542	1.147	O.co2	1	SAM307	0.000	
18	  N1	32.218	0.239	-5.664	N.2	1	SAM307	0.000	
19	  C2	32.903	-0.944	-5.533	C.2	1	SAM307	0.000	
20	  N3	34.262	-0.945	-5.345	N.2	1	SAM307	0.000	
21	  C4	34.919	0.243	-5.267	C.2	1	SAM307	0.000	
22	  C5	34.254	1.445	-5.390	C.2	1	SAM307	0.000	
23	  C6	32.883	1.441	-5.583	C.2	1	SAM307	0.000	
24	  N6	32.213	2.576	-5.728	N.pl3	1	SAM307	0.000	
25	  N7	35.172	2.445	-5.260	N.2	1	SAM307	0.000	
26	  C8	36.391	1.888	-5.080	C.2	1	SAM307	0.000	
27	  N9	36.234	0.521	-5.076	N.2	1	SAM307	0.000	
@<TRIPOS>BOND
1 1 2 1
2 2 3 1
3 2 5 1
4 3 4 ar
5 3 17 ar
6 5 6 1
7 6 7 1
8 7 8 1
9 7 9 1
10 9 10 1
11 10 11 1
12 10 12 1
13 11 16 1
14 12 13 1
15 12 14 1
16 14 15 1
17 14 16 1
18 16 27 1
19 18 19 ar
20 18 23 ar
21 19 20 ar
22 20 21 ar
23 21 22 ar
24 21 27 ar
25 22 23 ar
26 22 25 ar
27 23 24 1
28 25 26 ar
29 26 27 ar
@<TRIPOS>SUBSTRUCTURE
1	SAM307	1	GROUP	1 A	SAM
