# created with PyMOL 2.5.0
@<TRIPOS>MOLECULE
5L6E
27 29 1                 
SMALL
USER_CHARGES
@<TRIPOS>ATOM
1	   N	18.474	-22.108	-9.792	N.3	1	SAM601	0.000	
2	  CA	17.274	-22.938	-9.675	C.3	1	SAM601	0.000	
3	   C	17.628	-24.346	-9.203	C.2	1	SAM601	0.000	
4	   O	18.810	-24.645	-8.908	O.co2	1	SAM601	0.000	
5	  CB	16.522	-23.077	-10.993	C.3	1	SAM601	0.000	
6	  CG	15.844	-21.782	-11.439	C.3	1	SAM601	0.000	
7	  SD	14.808	-22.119	-12.872	S.3	1	SAM601	0.000	
8	  CE	15.981	-21.916	-14.240	C.3	1	SAM601	0.000	
9	 C5'	13.988	-20.496	-13.034	C.3	1	SAM601	0.000	
10	 C4'	12.965	-20.202	-11.933	C.3	1	SAM601	0.000	
11	 O4'	12.416	-18.899	-12.095	O.3	1	SAM601	0.000	
12	 C3'	11.780	-21.144	-11.936	C.3	1	SAM601	0.000	
13	 O3'	11.680	-21.693	-10.658	O.3	1	SAM601	0.000	
14	 C2'	10.552	-20.265	-12.115	C.3	1	SAM601	0.000	
15	 O2'	9.519	-20.708	-11.272	O.3	1	SAM601	0.000	
16	 C1'	11.059	-18.903	-11.673	C.3	1	SAM601	0.000	
17	 OXT	16.721	-25.176	-9.084	O.co2	1	SAM601	0.000	
18	  N1	9.401	-14.085	-10.838	N.2	1	SAM601	0.000	
19	  C2	10.055	-14.923	-9.973	C.2	1	SAM601	0.000	
20	  N3	10.400	-16.176	-10.376	N.2	1	SAM601	0.000	
21	  C4	10.121	-16.582	-11.624	C.2	1	SAM601	0.000	
22	  C5	9.472	-15.754	-12.517	C.2	1	SAM601	0.000	
23	  C6	9.100	-14.494	-12.101	C.2	1	SAM601	0.000	
24	  N6	8.486	-13.647	-12.904	N.pl3	1	SAM601	0.000	
25	  N7	9.310	-16.422	-13.675	N.2	1	SAM601	0.000	
26	  C8	9.842	-17.642	-13.527	C.2	1	SAM601	0.000	
27	  N9	10.342	-17.759	-12.257	N.2	1	SAM601	0.000	
@<TRIPOS>BOND
1 1 2 1
2 2 3 1
3 2 5 1
4 3 4 ar
5 3 17 ar
6 5 6 1
7 6 7 1
8 7 8 1
9 7 9 1
10 9 10 1
11 10 11 1
12 10 12 1
13 11 16 1
14 12 13 1
15 12 14 1
16 14 15 1
17 14 16 1
18 16 27 1
19 18 19 ar
20 18 23 ar
21 19 20 ar
22 20 21 ar
23 21 22 ar
24 21 27 ar
25 22 23 ar
26 22 25 ar
27 23 24 1
28 25 26 ar
29 26 27 ar
@<TRIPOS>SUBSTRUCTURE
1	SAM601	1	GROUP	1 A	SAM
