@<TRIPOS>MOLECULE
5L6E.A
51 53 1 0 0 
SMALL
USER_CHARGES


@<TRIPOS>ATOM
  1 N       18.4740   -22.1080    -9.7920 N.4   1 SAM  -0.8530 
  2 H1      19.1104   -22.5278   -10.4545 H     1 SAM   0.4500 
  3 H2      18.9242   -22.0380    -8.8906 H     1 SAM   0.4500 
  4 H3      18.2154   -21.1855   -10.1117 H     1 SAM   0.4500 
  5 CA      17.2740   -22.9380    -9.6750 C.3   1 SAM   0.3170 
  6 HA      16.6380   -22.4292    -8.9506 H     1 SAM   0.0800 
  7 C       17.6280   -24.3460    -9.2030 C.2   1 SAM   0.9060 
  8 O       18.8100   -24.6450    -8.9080 O.co2 1 SAM  -0.9000 
  9 CB      16.5220   -23.0770   -10.9930 C.3   1 SAM  -0.1600 
 10 HB1     15.7580   -23.8457   -10.8765 H     1 SAM   0.0800 
 11 HB2     17.2290   -23.3814   -11.7647 H     1 SAM   0.0800 
 12 CG      15.8440   -21.7820   -11.4390 C.3   1 SAM  -0.1525 
 13 HG1     16.6029   -21.0454   -11.7030 H     1 SAM   0.0800 
 14 HG2     15.2284   -21.3945   -10.6272 H     1 SAM   0.0800 
 15 SD      14.8080   -22.1190   -12.8720 S.3   1 SAM   0.9775 
 16 CE      15.9810   -21.9160   -14.2400 C.3   1 SAM  -0.2325 
 17 HE1     16.5981   -22.8105   -14.3252 H     1 SAM   0.0800 
 18 HE2     16.6176   -21.0524   -14.0476 H     1 SAM   0.0800 
 19 HE3     15.4324   -21.7632   -15.1694 H     1 SAM   0.0800 
 20 C5'     13.9880   -20.4960   -13.0340 C.3   1 SAM  -0.1525 
 21 H5'1    13.4751   -20.4656   -13.9953 H     1 SAM   0.0800 
 22 H5'2    14.7538   -19.7208   -13.0061 H     1 SAM   0.0800 
 23 C4'     12.9650   -20.2020   -11.9330 C.3   1 SAM   0.2000 
 24 H4'     13.5225   -20.3148   -11.0032 H     1 SAM   0.0800 
 25 O4'     12.4160   -18.8990   -12.0950 O.3   1 SAM  -0.5600 
 26 C3'     11.7800   -21.1440   -11.9360 C.3   1 SAM   0.2000 
 27 H3'     11.8721   -21.9148   -12.7012 H     1 SAM   0.0800 
 28 O3'     11.6800   -21.6930   -10.6580 O.3   1 SAM  -0.6800 
 29 H3'     10.8988   -22.2508   -10.6420 H     1 SAM   0.4000 
 30 C2'     10.5520   -20.2650   -12.1150 C.3   1 SAM   0.2000 
 31 H2'     10.1450   -20.2683   -13.1262 H     1 SAM   0.0800 
 32 O2'      9.5190   -20.7080   -11.2720 O.3   1 SAM  -0.6800 
 33 H2'      9.8587   -20.7121   -10.3741 H     1 SAM   0.4000 
 34 C1'     11.0590   -18.9030   -11.6730 C.3   1 SAM   0.5691 
 35 H1'     10.9134   -18.7765   -10.6002 H     1 SAM   0.0800 
 36 OXT     16.7210   -25.1760    -9.0840 O.co2 1 SAM  -0.9000 
 37 N1       9.4010   -14.0850   -10.8380 N.2   1 SAM  -0.6610 
 38 C2      10.0550   -14.9230    -9.9730 C.2   1 SAM   0.6010 
 39 H2      10.2959   -14.5898    -8.9743 H     1 SAM   0.0600 
 40 N3      10.4000   -16.1760   -10.3760 N.2   1 SAM  -0.6610 
 41 C4      10.1210   -16.5820   -11.6240 C.2   1 SAM   0.5000 
 42 C5       9.4720   -15.7540   -12.5170 C.2   1 SAM   0.4500 
 43 C6       9.1000   -14.4940   -12.1010 C.2   1 SAM   0.6110 
 44 N6       8.4860   -13.6470   -12.9040 N.2   1 SAM  -0.2000 
 45 H62      8.2266   -12.7305   -12.5682 H     1 SAM   0.4000 
 46 H61      8.2752   -13.9149   -13.8547 H     1 SAM   0.4000 
 47 N7       9.3100   -16.4220   -13.6750 N.2   1 SAM  -0.6960 
 48 C8       9.8420   -17.6420   -13.5270 C.3   1 SAM   0.4551 
 49 H81     10.6455   -17.7806   -14.2504 H     1 SAM   0.0800 
 50 H82      9.0735   -18.3979   -13.6884 H     1 SAM   0.0800 
 51 N9      10.3420   -17.7590   -12.2570 N.pl3 1 SAM  -0.7882 
@<TRIPOS>BOND
  1   1   2  1   
  2   1   3  1   
  3   1   4  1   
  4   1   5  1   
  5   5   6  1   
  6   5   7  1   
  7   5   9  1   
  8   7   8  ar  
  9   7  36  ar  
 10   9  10  1   
 11   9  11  1   
 12   9  12  1   
 13  12  13  1   
 14  12  14  1   
 15  12  15  1   
 16  15  16  1   
 17  15  20  1   
 18  16  17  1   
 19  16  18  1   
 20  16  19  1   
 21  20  21  1   
 22  20  22  1   
 23  20  23  1   
 24  23  24  1   
 25  23  25  1   
 26  23  26  1   
 27  25  34  1   
 28  26  27  1   
 29  26  28  1   
 30  26  30  1   
 31  28  29  1   
 32  30  31  1   
 33  30  32  1   
 34  30  34  1   
 35  32  33  1   
 36  34  35  1   
 37  34  51  1   
 38  37  38  2   
 39  37  43  1   
 40  38  39  1   
 41  38  40  1   
 42  40  41  2   
 43  41  42  1   
 44  41  51  1   
 45  42  43  1   
 46  42  47  2   
 47  43  44  2   
 48  44  45  1   
 49  44  46  1   
 50  47  48  1   
 51  48  49  1   
 52  48  50  1   
 53  48  51  1   
@<TRIPOS>SUBSTRUCTURE
  1 SAM  23 GROUP 4 A **** 0

# MOE 2022.02 (io_trps.svl 2020.11)
