# created with PyMOL 2.5.2
@<TRIPOS>MOLECULE
6NW6
27 29 1                 
SMALL
USER_CHARGES
@<TRIPOS>ATOM
1	   N	-4.833	29.608	5.612	N.3	1	SAM301	0.000	
2	  CA	-5.696	29.932	4.475	C.3	1	SAM301	0.000	
3	   C	-7.137	30.101	4.964	C.2	1	SAM301	0.000	
4	   O	-7.978	30.707	4.297	O.co2	1	SAM301	0.000	
5	  CB	-5.530	28.894	3.355	C.3	1	SAM301	0.000	
6	  CG	-5.766	29.325	1.910	C.3	1	SAM301	0.000	
7	  SD	-4.319	29.643	0.847	S.3	1	SAM301	0.000	
8	  CE	-4.827	28.836	-0.693	C.3	1	SAM301	0.000	
9	 C5'	-2.945	28.573	1.349	C.3	1	SAM301	0.000	
10	 C4'	-1.818	29.246	2.149	C.3	1	SAM301	0.000	
11	 O4'	-1.118	30.280	1.439	O.3	1	SAM301	0.000	
12	 C3'	-2.319	29.900	3.424	C.3	1	SAM301	0.000	
13	 O3'	-2.510	28.953	4.470	O.3	1	SAM301	0.000	
14	 C2'	-1.248	30.912	3.739	C.3	1	SAM301	0.000	
15	 O2'	-0.138	30.291	4.376	O.3	1	SAM301	0.000	
16	 C1'	-0.827	31.337	2.343	C.3	1	SAM301	0.000	
17	 OXT	-7.488	29.652	6.057	O.co2	1	SAM301	0.000	
18	  N1	-1.357	36.491	2.984	N.2	1	SAM301	0.000	
19	  C2	-0.602	35.611	3.732	C.2	1	SAM301	0.000	
20	  N3	-0.591	34.265	3.404	N.2	1	SAM301	0.000	
21	  C4	-1.325	33.827	2.359	C.2	1	SAM301	0.000	
22	  C5	-2.103	34.697	1.600	C.2	1	SAM301	0.000	
23	  C6	-2.109	36.059	1.914	C.2	1	SAM301	0.000	
24	  N6	-2.829	36.944	1.213	N.pl3	1	SAM301	0.000	
25	  N7	-2.720	33.969	0.641	N.2	1	SAM301	0.000	
26	  C8	-2.351	32.676	0.782	C.2	1	SAM301	0.000	
27	  N9	-1.509	32.560	1.859	N.2	1	SAM301	0.000	
@<TRIPOS>BOND
1 1 2 1
2 2 3 1
3 2 5 1
4 3 4 ar
5 3 17 ar
6 5 6 1
7 6 7 1
8 7 8 1
9 7 9 1
10 9 10 1
11 10 11 1
12 10 12 1
13 11 16 1
14 12 13 1
15 12 14 1
16 14 15 1
17 14 16 1
18 16 27 1
19 18 19 ar
20 18 23 ar
21 19 20 ar
22 20 21 ar
23 21 22 ar
24 21 27 ar
25 22 23 ar
26 22 25 ar
27 23 24 1
28 25 26 ar
29 26 27 ar
@<TRIPOS>SUBSTRUCTURE
1	SAM301	1	GROUP	1 B	SAM
