# created with PyMOL 2.5.0
@<TRIPOS>MOLECULE
2QMM
19 21 1                 
SMALL
USER_CHARGES
@<TRIPOS>ATOM
1	  SD	-3.757	29.323	0.764	S.3	1	SAM301	0.000	
2	 C5'	-2.548	28.560	0.973	C.3	1	SAM301	0.000	
3	 C4'	-1.695	29.204	2.060	C.3	1	SAM301	0.000	
4	 O4'	-1.058	30.387	1.548	O.3	1	SAM301	0.000	
5	 C3'	-2.453	29.713	3.290	C.3	1	SAM301	0.000	
6	 O3'	-2.722	28.707	4.267	O.3	1	SAM301	0.000	
7	 C2'	-1.502	30.748	3.857	C.3	1	SAM301	0.000	
8	 O2'	-0.492	30.090	4.672	O.3	1	SAM301	0.000	
9	 C1'	-0.940	31.376	2.582	C.3	1	SAM301	0.000	
10	  N1	-0.994	36.625	2.579	N.2	1	SAM301	0.000	
11	  C2	-0.177	35.754	3.181	C.2	1	SAM301	0.000	
12	  N3	-0.292	34.421	3.091	N.2	1	SAM301	0.000	
13	  C4	-1.303	33.876	2.391	C.2	1	SAM301	0.000	
14	  C5	-2.263	34.776	1.698	C.2	1	SAM301	0.000	
15	  C6	-2.055	36.240	1.854	C.2	1	SAM301	0.000	
16	  N6	-2.886	37.151	1.317	N.pl3	1	SAM301	0.000	
17	  N7	-3.147	33.985	1.051	N.2	1	SAM301	0.000	
18	  C8	-2.783	32.687	1.327	C.2	1	SAM301	0.000	
19	  N9	-1.673	32.611	2.124	N.2	1	SAM301	0.000	
@<TRIPOS>BOND
1 1 2 1
2 2 3 1
3 3 4 1
4 3 5 1
5 4 9 1
6 5 6 1
7 5 7 1
8 7 8 1
9 7 9 1
10 9 19 1
11 10 11 ar
12 10 15 ar
13 11 12 ar
14 12 13 ar
15 13 14 ar
16 13 19 ar
17 14 15 ar
18 14 17 ar
19 15 16 1
20 17 18 ar
21 18 19 ar
@<TRIPOS>SUBSTRUCTURE
1	SAM301	1	GROUP	1 B	SAM
