# created with PyMOL 2.4.0
@<TRIPOS>MOLECULE
temp
50 52 1                 
SMALL
USER_CHARGES
@<TRIPOS>ATOM
1	   N	8.840	29.105	-18.729	N.4	1	SAM1	0.000	
2	  CA	9.954	29.909	-18.162	C.3	1	SAM1	0.000	
3	   C	10.241	29.514	-16.723	C.2	1	SAM1	0.000	
4	   O	11.248	29.962	-16.177	O.co2	1	SAM1	0.000	
5	  CB	9.654	31.402	-18.273	C.3	1	SAM1	0.000	
6	  CG	10.754	32.161	-19.000	C.3	1	SAM1	0.000	
7	  SD	10.417	33.915	-19.307	S.3	1	SAM1	0.000	
8	  CE	10.299	34.568	-17.654	C.3	1	SAM1	0.000	
9	 C5'	8.700	34.153	-19.788	C.3	1	SAM1	0.000	
10	 C4'	8.445	35.662	-19.958	C.3	1	SAM1	0.000	
11	 O4'	8.753	36.506	-18.832	O.3	1	SAM1	0.000	
12	 C3'	9.228	36.234	-21.127	C.3	1	SAM1	0.000	
13	 O3'	8.243	36.895	-21.889	O.3	1	SAM1	0.000	
14	 C2'	10.222	37.190	-20.472	C.3	1	SAM1	0.000	
15	 O2'	10.658	38.264	-21.303	O.3	1	SAM1	0.000	
16	 C1'	9.424	37.672	-19.274	C.3	1	SAM1	0.000	
17	 OXT	9.483	28.752	-16.095	O.co2	1	SAM1	0.000	
18	  N1	9.387	41.329	-15.596	N.2	1	SAM1	0.000	
19	  C2	8.417	41.078	-16.549	C.2	1	SAM1	0.000	
20	  N3	8.625	40.067	-17.445	N.2	1	SAM1	0.000	
21	  C4	9.761	39.306	-17.387	C.2	1	SAM1	0.000	
22	  C5	10.753	39.543	-16.426	C.2	1	SAM1	0.000	
23	  C6	10.551	40.566	-15.504	C.2	1	SAM1	0.000	
24	  N6	11.472	40.846	-14.555	N.pl3	1	SAM1	0.000	
25	  N7	11.755	38.633	-16.624	N.2	1	SAM1	0.000	
26	  C8	11.420	37.851	-17.674	C.2	1	SAM1	0.000	
27	  N9	10.199	38.253	-18.159	N.2	1	SAM1	0.000	
28	  HA	10.851	29.699	-18.746	 H	1	SAM1	0.000	
29	 HB1	9.549	31.814	-17.269	 H	1	SAM1	0.000	
30	 HB2	8.719	31.532	-18.819	 H	1	SAM1	0.000	
31	 HG1	10.917	31.677	-19.963	 H	1	SAM1	0.000	
32	 HG2	11.662	32.093	-18.401	 H	1	SAM1	0.000	
33	 HE1	11.274	34.512	-17.171	 H	1	SAM1	0.000	
34	 HE2	9.577	33.984	-17.083	 H	1	SAM1	0.000	
35	 HE3	9.974	35.607	-17.696	 H	1	SAM1	0.000	
36	  H1	7.996	29.282	-18.204	 H	1	SAM1	0.000	
37	  H2	9.071	28.123	-18.674	 H	1	SAM1	0.000	
38	  H2	7.514	41.669	-16.585	 H	1	SAM1	0.000	
39	  H3	8.696	29.363	-19.695	 H	1	SAM1	0.000	
40	  H8	12.016	37.041	-18.068	 H	1	SAM1	0.000	
41	 H1'	8.785	38.500	-19.582	 H	1	SAM1	0.000	
42	 H2'	11.169	36.707	-20.230	 H	1	SAM1	0.000	
43	 H2'	11.107	37.881	-22.060	 H	1	SAM1	0.000	
44	 H3'	9.773	35.538	-21.764	 H	1	SAM1	0.000	
45	 H3'	8.691	37.368	-22.595	 H	1	SAM1	0.000	
46	 H4'	7.365	35.683	-20.106	 H	1	SAM1	0.000	
47	 H61	12.326	40.309	-14.506	 H	1	SAM1	0.000	
48	 H62	11.306	41.592	-13.895	 H	1	SAM1	0.000	
49	H5'1	8.043	33.754	-19.015	 H	1	SAM1	0.000	
50	H5'2	8.507	33.639	-20.730	 H	1	SAM1	0.000	
@<TRIPOS>BOND
1 1 2 1
2 1 36 1
3 1 37 1
4 1 39 1
5 2 3 1
6 2 5 1
7 2 28 1
8 3 4 ar
9 3 17 ar
10 5 6 1
11 5 29 1
12 5 30 1
13 6 7 1
14 6 31 1
15 6 32 1
16 7 8 1
17 7 9 1
18 8 33 1
19 8 34 1
20 8 35 1
21 9 10 1
22 9 49 1
23 9 50 1
24 10 11 1
25 10 12 1
26 10 46 1
27 11 16 1
28 12 13 1
29 12 14 1
30 12 44 1
31 13 45 1
32 14 15 1
33 14 16 1
34 14 42 1
35 15 43 1
36 16 27 1
37 16 41 1
38 18 19 ar
39 18 23 ar
40 19 20 ar
41 19 38 1
42 20 21 ar
43 21 22 ar
44 21 27 ar
45 22 23 ar
46 22 25 ar
47 23 24 1
48 24 47 1
49 24 48 1
50 25 26 ar
51 26 27 ar
52 26 40 1
@<TRIPOS>SUBSTRUCTURE
1	SAM1	1	GROUP	1 B	SAM
