@<TRIPOS>MOLECULE
1ZQ9.B
51 53 1 0 0 
SMALL
USER_CHARGES


@<TRIPOS>ATOM
  1 N        8.8400    29.1050   -18.7290 N.4   1 SAM  -0.8530 
  2 H1       7.9957    29.2822   -18.2038 H     1 SAM   0.4500 
  3 H2       9.0711    28.1234   -18.6737 H     1 SAM   0.4500 
  4 H3       8.6962    29.3631   -19.6948 H     1 SAM   0.4500 
  5 CA       9.9540    29.9090   -18.1620 C.3   1 SAM   0.3170 
  6 HA      10.8505    29.6995   -18.7455 H     1 SAM   0.0800 
  7 C       10.2410    29.5140   -16.7230 C.2   1 SAM   0.9060 
  8 O       11.2480    29.9620   -16.1770 O.co2 1 SAM  -0.9000 
  9 CB       9.6540    31.4020   -18.2730 C.3   1 SAM  -0.1600 
 10 HB1      9.5489    31.8137   -17.2692 H     1 SAM   0.0800 
 11 HB2      8.7194    31.5318   -18.8186 H     1 SAM   0.0800 
 12 CG      10.7540    32.1610   -19.0000 C.3   1 SAM  -0.1525 
 13 HG1     10.9170    31.6765   -19.9627 H     1 SAM   0.0800 
 14 HG2     11.6619    32.0930   -18.4007 H     1 SAM   0.0800 
 15 SD      10.4170    33.9150   -19.3070 S.3   1 SAM   0.9775 
 16 CE      10.2990    34.5680   -17.6540 C.3   1 SAM  -0.2325 
 17 HE1     11.2744    34.5121   -17.1708 H     1 SAM   0.0800 
 18 HE2      9.5768    33.9841   -17.0834 H     1 SAM   0.0800 
 19 HE3      9.9735    35.6074   -17.6963 H     1 SAM   0.0800 
 20 C5'      8.7000    34.1530   -19.7880 C.3   1 SAM  -0.1525 
 21 H5'1     8.0430    33.7538   -19.0153 H     1 SAM   0.0800 
 22 H5'2     8.5074    33.6391   -20.7298 H     1 SAM   0.0800 
 23 C4'      8.4450    35.6620   -19.9580 C.3   1 SAM   0.2000 
 24 H4'      7.3653    35.6831   -20.1057 H     1 SAM   0.0800 
 25 O4'      8.7530    36.5060   -18.8320 O.3   1 SAM  -0.5600 
 26 C3'      9.2280    36.2340   -21.1270 C.3   1 SAM   0.2000 
 27 H3'      9.7734    35.5382   -21.7645 H     1 SAM   0.0800 
 28 O3'      8.2430    36.8950   -21.8890 O.3   1 SAM  -0.6800 
 29 H3'      8.6906    37.3677   -22.5946 H     1 SAM   0.4000 
 30 C2'     10.2220    37.1900   -20.4720 C.3   1 SAM   0.2000 
 31 H2'     11.1687    36.7070   -20.2302 H     1 SAM   0.0800 
 32 O2'     10.6580    38.2640   -21.3030 O.3   1 SAM  -0.6800 
 33 H2'      9.8796    38.7575   -21.5718 H     1 SAM   0.4000 
 34 C1'      9.4240    37.6720   -19.2740 C.3   1 SAM   0.5691 
 35 H1'      8.7854    38.5000   -19.5818 H     1 SAM   0.0800 
 36 OXT      9.4830    28.7520   -16.0950 O.co2 1 SAM  -0.9000 
 37 N1       9.3870    41.3290   -15.5960 N.2   1 SAM  -0.6610 
 38 C2       8.4170    41.0780   -16.5490 C.2   1 SAM   0.6010 
 39 H2       7.5136    41.6687   -16.5846 H     1 SAM   0.0600 
 40 N3       8.6250    40.0670   -17.4450 N.2   1 SAM  -0.6610 
 41 C4       9.7610    39.3060   -17.3870 C.2   1 SAM   0.5000 
 42 C5      10.7530    39.5430   -16.4260 C.2   1 SAM   0.4500 
 43 C6      10.5510    40.5660   -15.5040 C.2   1 SAM   0.6110 
 44 N6      11.4720    40.8460   -14.5550 N.2   1 SAM  -0.2000 
 45 H62     11.3064    41.5925   -13.8952 H     1 SAM   0.4000 
 46 H61     12.3258    40.3087   -14.5057 H     1 SAM   0.4000 
 47 N7      11.7550    38.6330   -16.6240 N.2   1 SAM  -0.6960 
 48 C8      11.4200    37.8510   -17.6740 C.3   1 SAM   0.4551 
 49 H81     11.3609    36.8115   -17.3514 H     1 SAM   0.0800 
 50 H82     12.1734    37.9465   -18.4559 H     1 SAM   0.0800 
 51 N9      10.1990    38.2530   -18.1590 N.pl3 1 SAM  -0.7882 
@<TRIPOS>BOND
  1   1   2  1   
  2   1   3  1   
  3   1   4  1   
  4   1   5  1   
  5   5   6  1   
  6   5   7  1   
  7   5   9  1   
  8   7   8  ar  
  9   7  36  ar  
 10   9  10  1   
 11   9  11  1   
 12   9  12  1   
 13  12  13  1   
 14  12  14  1   
 15  12  15  1   
 16  15  16  1   
 17  15  20  1   
 18  16  17  1   
 19  16  18  1   
 20  16  19  1   
 21  20  21  1   
 22  20  22  1   
 23  20  23  1   
 24  23  24  1   
 25  23  25  1   
 26  23  26  1   
 27  25  34  1   
 28  26  27  1   
 29  26  28  1   
 30  26  30  1   
 31  28  29  1   
 32  30  31  1   
 33  30  32  1   
 34  30  34  1   
 35  32  33  1   
 36  34  35  1   
 37  34  51  1   
 38  37  38  2   
 39  37  43  1   
 40  38  39  1   
 41  38  40  1   
 42  40  41  2   
 43  41  42  1   
 44  41  51  1   
 45  42  43  1   
 46  42  47  2   
 47  43  44  2   
 48  44  45  1   
 49  44  46  1   
 50  47  48  1   
 51  48  49  1   
 52  48  50  1   
 53  48  51  1   
@<TRIPOS>SUBSTRUCTURE
  1 SAM  16 GROUP 4 B **** 0

# MOE 2022.02 (io_trps.svl 2020.11)
