# created with PyMOL 2.5.2
@<TRIPOS>MOLECULE
1ZQ9
27 29 1                 
SMALL
USER_CHARGES
@<TRIPOS>ATOM
1	   N	8.840	29.105	-18.729	N.3	1	SAM4001	0.000	
2	  CA	9.954	29.909	-18.162	C.3	1	SAM4001	0.000	
3	   C	10.241	29.514	-16.723	C.2	1	SAM4001	0.000	
4	   O	11.248	29.962	-16.177	O.co2	1	SAM4001	0.000	
5	  CB	9.654	31.402	-18.273	C.3	1	SAM4001	0.000	
6	  CG	10.754	32.161	-19.000	C.3	1	SAM4001	0.000	
7	  SD	10.417	33.915	-19.307	S.3	1	SAM4001	0.000	
8	  CE	10.299	34.568	-17.654	C.3	1	SAM4001	0.000	
9	 C5'	8.700	34.153	-19.788	C.3	1	SAM4001	0.000	
10	 C4'	8.445	35.662	-19.958	C.3	1	SAM4001	0.000	
11	 O4'	8.753	36.506	-18.832	O.3	1	SAM4001	0.000	
12	 C3'	9.228	36.234	-21.127	C.3	1	SAM4001	0.000	
13	 O3'	8.243	36.895	-21.889	O.3	1	SAM4001	0.000	
14	 C2'	10.222	37.190	-20.472	C.3	1	SAM4001	0.000	
15	 O2'	10.658	38.264	-21.303	O.3	1	SAM4001	0.000	
16	 C1'	9.424	37.672	-19.274	C.3	1	SAM4001	0.000	
17	 OXT	9.483	28.752	-16.095	O.co2	1	SAM4001	0.000	
18	  N1	9.387	41.329	-15.596	N.2	1	SAM4001	0.000	
19	  C2	8.417	41.078	-16.549	C.2	1	SAM4001	0.000	
20	  N3	8.625	40.067	-17.445	N.2	1	SAM4001	0.000	
21	  C4	9.761	39.306	-17.387	C.2	1	SAM4001	0.000	
22	  C5	10.753	39.543	-16.426	C.2	1	SAM4001	0.000	
23	  C6	10.551	40.566	-15.504	C.2	1	SAM4001	0.000	
24	  N6	11.472	40.846	-14.555	N.pl3	1	SAM4001	0.000	
25	  N7	11.755	38.633	-16.624	N.2	1	SAM4001	0.000	
26	  C8	11.420	37.851	-17.674	C.2	1	SAM4001	0.000	
27	  N9	10.199	38.253	-18.159	N.2	1	SAM4001	0.000	
@<TRIPOS>BOND
1 1 2 1
2 2 3 1
3 2 5 1
4 3 4 ar
5 3 17 ar
6 5 6 1
7 6 7 1
8 7 8 1
9 7 9 1
10 9 10 1
11 10 11 1
12 10 12 1
13 11 16 1
14 12 13 1
15 12 14 1
16 14 15 1
17 14 16 1
18 16 27 1
19 18 19 ar
20 18 23 ar
21 19 20 ar
22 20 21 ar
23 21 22 ar
24 21 27 ar
25 22 23 ar
26 22 25 ar
27 23 24 1
28 25 26 ar
29 26 27 ar
@<TRIPOS>SUBSTRUCTURE
1	SAM4001	1	GROUP	1 B	SAM
