# created with PyMOL 2.4.0
@<TRIPOS>MOLECULE
temp
50 52 1                 
SMALL
USER_CHARGES
@<TRIPOS>ATOM
1	   N	-4.833	29.608	5.612	N.4	1	SAM1	0.000	
2	  CA	-5.696	29.932	4.475	C.3	1	SAM1	0.000	
3	   C	-7.137	30.101	4.964	C.2	1	SAM1	0.000	
4	   O	-7.978	30.707	4.297	O.co2	1	SAM1	0.000	
5	  CB	-5.530	28.894	3.355	C.3	1	SAM1	0.000	
6	  CG	-5.766	29.325	1.910	C.3	1	SAM1	0.000	
7	  SD	-4.319	29.643	0.847	S.3	1	SAM1	0.000	
8	  CE	-4.827	28.836	-0.693	C.3	1	SAM1	0.000	
9	 C5'	-2.945	28.573	1.349	C.3	1	SAM1	0.000	
10	 C4'	-1.818	29.246	2.149	C.3	1	SAM1	0.000	
11	 O4'	-1.118	30.280	1.439	O.3	1	SAM1	0.000	
12	 C3'	-2.319	29.900	3.424	C.3	1	SAM1	0.000	
13	 O3'	-2.510	28.953	4.470	O.3	1	SAM1	0.000	
14	 C2'	-1.248	30.912	3.739	C.3	1	SAM1	0.000	
15	 O2'	-0.138	30.291	4.376	O.3	1	SAM1	0.000	
16	 C1'	-0.827	31.337	2.343	C.3	1	SAM1	0.000	
17	 OXT	-7.488	29.652	6.057	O.co2	1	SAM1	0.000	
18	  N1	-1.357	36.491	2.984	N.2	1	SAM1	0.000	
19	  C2	-0.602	35.611	3.732	C.2	1	SAM1	0.000	
20	  N3	-0.591	34.265	3.404	N.2	1	SAM1	0.000	
21	  C4	-1.325	33.827	2.359	C.2	1	SAM1	0.000	
22	  C5	-2.103	34.697	1.600	C.2	1	SAM1	0.000	
23	  C6	-2.109	36.059	1.914	C.2	1	SAM1	0.000	
24	  N6	-2.829	36.944	1.213	N.pl3	1	SAM1	0.000	
25	  N7	-2.720	33.969	0.641	N.2	1	SAM1	0.000	
26	  C8	-2.351	32.676	0.782	C.2	1	SAM1	0.000	
27	  N9	-1.509	32.560	1.859	N.2	1	SAM1	0.000	
28	  HA	-5.402	30.883	4.031	 H	1	SAM1	0.000	
29	 HB1	-6.227	28.083	3.565	 H	1	SAM1	0.000	
30	 HB2	-4.508	28.520	3.414	 H	1	SAM1	0.000	
31	 HG1	-6.351	30.244	1.940	 H	1	SAM1	0.000	
32	 HG2	-6.350	28.539	1.431	 H	1	SAM1	0.000	
33	 HE1	-5.667	29.378	-1.127	 H	1	SAM1	0.000	
34	 HE2	-5.126	27.809	-0.484	 H	1	SAM1	0.000	
35	 HE3	-3.993	28.836	-1.395	 H	1	SAM1	0.000	
36	  H1	-5.119	28.725	6.011	 H	1	SAM1	0.000	
37	  H2	-4.910	30.334	6.310	 H	1	SAM1	0.000	
38	  H2	-0.022	35.970	4.569	 H	1	SAM1	0.000	
39	  H3	-3.875	29.542	5.299	 H	1	SAM1	0.000	
40	  H8	-2.669	31.862	0.147	 H	1	SAM1	0.000	
41	 H1'	0.239	31.561	2.392	 H	1	SAM1	0.000	
42	 H2'	-1.583	31.713	4.397	 H	1	SAM1	0.000	
43	 H2'	0.541	30.960	4.493	 H	1	SAM1	0.000	
44	 H3'	-3.301	30.360	3.312	 H	1	SAM1	0.000	
45	 H3'	-1.671	28.510	4.618	 H	1	SAM1	0.000	
46	 H4'	-1.145	28.413	2.353	 H	1	SAM1	0.000	
47	 H61	-3.389	36.634	0.432	 H	1	SAM1	0.000	
48	 H62	-2.812	37.922	1.465	 H	1	SAM1	0.000	
49	H5'1	-2.505	28.151	0.445	 H	1	SAM1	0.000	
50	H5'2	-3.355	27.771	1.963	 H	1	SAM1	0.000	
@<TRIPOS>BOND
1 1 2 1
2 1 36 1
3 1 37 1
4 1 39 1
5 2 3 1
6 2 5 1
7 2 28 1
8 3 4 ar
9 3 17 ar
10 5 6 1
11 5 29 1
12 5 30 1
13 6 7 1
14 6 31 1
15 6 32 1
16 7 8 1
17 7 9 1
18 8 33 1
19 8 34 1
20 8 35 1
21 9 10 1
22 9 49 1
23 9 50 1
24 10 11 1
25 10 12 1
26 10 46 1
27 11 16 1
28 12 13 1
29 12 14 1
30 12 44 1
31 13 45 1
32 14 15 1
33 14 16 1
34 14 42 1
35 15 43 1
36 16 27 1
37 16 41 1
38 18 19 ar
39 18 23 ar
40 19 20 ar
41 19 38 1
42 20 21 ar
43 21 22 ar
44 21 27 ar
45 22 23 ar
46 22 25 ar
47 23 24 1
48 24 47 1
49 24 48 1
50 25 26 ar
51 26 27 ar
52 26 40 1
@<TRIPOS>SUBSTRUCTURE
1	SAM1	1	GROUP	1 B	SAM
