# created with PyMOL 2.5.0
@<TRIPOS>MOLECULE
2QMM
19 21 1                 
SMALL
USER_CHARGES
@<TRIPOS>ATOM
1	  SD	10.874	34.370	-19.187	S.3	1	SAM301	0.000	
2	 C5'	9.591	34.130	-19.791	C.3	1	SAM301	0.000	
3	 C4'	8.934	35.465	-20.147	C.3	1	SAM301	0.000	
4	 O4'	8.568	36.142	-18.939	O.3	1	SAM301	0.000	
5	 C3'	9.834	36.489	-20.865	C.3	1	SAM301	0.000	
6	 O3'	9.904	36.268	-22.273	O.3	1	SAM301	0.000	
7	 C2'	9.177	37.820	-20.526	C.3	1	SAM301	0.000	
8	 O2'	8.101	38.073	-21.474	O.3	1	SAM301	0.000	
9	 C1'	8.682	37.569	-19.094	C.3	1	SAM301	0.000	
10	  N1	9.892	41.558	-15.834	N.2	1	SAM301	0.000	
11	  C2	8.930	41.433	-16.763	C.2	1	SAM301	0.000	
12	  N3	8.733	40.340	-17.518	N.2	1	SAM301	0.000	
13	  C4	9.550	39.268	-17.409	C.2	1	SAM301	0.000	
14	  C5	10.651	39.310	-16.394	C.2	1	SAM301	0.000	
15	  C6	10.791	40.574	-15.607	C.2	1	SAM301	0.000	
16	  N6	11.761	40.735	-14.676	N.pl3	1	SAM301	0.000	
17	  N7	11.284	38.127	-16.466	N.2	1	SAM301	0.000	
18	  C8	10.664	37.401	-17.450	C.2	1	SAM301	0.000	
19	  N9	9.612	38.071	-18.012	N.2	1	SAM301	0.000	
@<TRIPOS>BOND
1 1 2 1
2 2 3 1
3 3 4 1
4 3 5 1
5 4 9 1
6 5 6 1
7 5 7 1
8 7 8 1
9 7 9 1
10 9 19 1
11 10 11 ar
12 10 15 ar
13 11 12 ar
14 12 13 ar
15 13 14 ar
16 13 19 ar
17 14 15 ar
18 14 17 ar
19 15 16 1
20 17 18 ar
21 18 19 ar
@<TRIPOS>SUBSTRUCTURE
1	SAM301	1	GROUP	1 A	SAM
