@<TRIPOS>MOLECULE
6NW6.B
51 53 1 0 0 
SMALL
USER_CHARGES


@<TRIPOS>ATOM
  1 N       -4.8330    29.6080     5.6120 N.4   1 SAM  -0.8530 
  2 H1      -5.1189    28.7252     6.0108 H     1 SAM   0.4500 
  3 H2      -4.9097    30.3336     6.3104 H     1 SAM   0.4500 
  4 H3      -3.8749    29.5416     5.2993 H     1 SAM   0.4500 
  5 CA      -5.6960    29.9320     4.4750 C.3   1 SAM   0.3170 
  6 HA      -5.4016    30.8831     4.0313 H     1 SAM   0.0800 
  7 C       -7.1370    30.1010     4.9640 C.2   1 SAM   0.9060 
  8 O       -7.9780    30.7070     4.2970 O.co2 1 SAM  -0.9000 
  9 CB      -5.5300    28.8940     3.3550 C.3   1 SAM  -0.1600 
 10 HB1     -6.2269    28.0826     3.5648 H     1 SAM   0.0800 
 11 HB2     -4.5080    28.5197     3.4145 H     1 SAM   0.0800 
 12 CG      -5.7660    29.3250     1.9100 C.3   1 SAM  -0.1525 
 13 HG1     -6.3508    30.2444     1.9403 H     1 SAM   0.0800 
 14 HG2     -6.3498    28.5387     1.4314 H     1 SAM   0.0800 
 15 SD      -4.3190    29.6430     0.8470 S.3   1 SAM   0.9775 
 16 CE      -4.8270    28.8360    -0.6930 C.3   1 SAM  -0.2325 
 17 HE1     -5.6674    29.3777    -1.1270 H     1 SAM   0.0800 
 18 HE2     -5.1260    27.8089    -0.4835 H     1 SAM   0.0800 
 19 HE3     -3.9933    28.8357    -1.3952 H     1 SAM   0.0800 
 20 C5'     -2.9450    28.5730     1.3490 C.3   1 SAM  -0.1525 
 21 H5'1    -2.5051    28.1507     0.4455 H     1 SAM   0.0800 
 22 H5'2    -3.3552    27.7709     1.9626 H     1 SAM   0.0800 
 23 C4'     -1.8180    29.2460     2.1490 C.3   1 SAM   0.2000 
 24 H4'     -1.1452    28.4131     2.3532 H     1 SAM   0.0800 
 25 O4'     -1.1180    30.2800     1.4390 O.3   1 SAM  -0.5600 
 26 C3'     -2.3190    29.9000     3.4240 C.3   1 SAM   0.2000 
 27 H3'     -3.3010    30.3595     3.3116 H     1 SAM   0.0800 
 28 O3'     -2.5100    28.9530     4.4700 O.3   1 SAM  -0.6800 
 29 H3'     -1.6710    28.5103     4.6176 H     1 SAM   0.4000 
 30 C2'     -1.2480    30.9120     3.7390 C.3   1 SAM   0.2000 
 31 H2'     -1.5834    31.7134     4.3973 H     1 SAM   0.0800 
 32 O2'     -0.1380    30.2910     4.3760 O.3   1 SAM  -0.6800 
 33 H2'      0.5408    30.9596     4.4931 H     1 SAM   0.4000 
 34 C1'     -0.8270    31.3370     2.3430 C.3   1 SAM   0.5691 
 35 H1'      0.2386    31.5612     2.3924 H     1 SAM   0.0800 
 36 OXT     -7.4880    29.6520     6.0570 O.co2 1 SAM  -0.9000 
 37 N1      -1.3570    36.4910     2.9840 N.2   1 SAM  -0.6610 
 38 C2      -0.6020    35.6110     3.7320 C.2   1 SAM   0.6010 
 39 H2      -0.0222    35.9699     4.5695 H     1 SAM   0.0600 
 40 N3      -0.5910    34.2650     3.4040 N.2   1 SAM  -0.6610 
 41 C4      -1.3250    33.8270     2.3590 C.2   1 SAM   0.5000 
 42 C5      -2.1030    34.6970     1.6000 C.2   1 SAM   0.4500 
 43 C6      -2.1090    36.0590     1.9140 C.2   1 SAM   0.6110 
 44 N6      -2.8290    36.9440     1.2130 N.2   1 SAM  -0.2000 
 45 H62     -2.8120    37.9218     1.4654 H     1 SAM   0.4000 
 46 H61     -3.3891    36.6337     0.4319 H     1 SAM   0.4000 
 47 N7      -2.7200    33.9690     0.6410 N.2   1 SAM  -0.6960 
 48 C8      -2.3510    32.6760     0.7820 C.3   1 SAM   0.4551 
 49 H81     -1.8368    32.3436    -0.1198 H     1 SAM   0.0800 
 50 H82     -3.2358    32.0603     0.9435 H     1 SAM   0.0800 
 51 N9      -1.5090    32.5600     1.8590 N.pl3 1 SAM  -0.7882 
@<TRIPOS>BOND
  1   1   2  1   
  2   1   3  1   
  3   1   4  1   
  4   1   5  1   
  5   5   6  1   
  6   5   7  1   
  7   5   9  1   
  8   7   8  ar  
  9   7  36  ar  
 10   9  10  1   
 11   9  11  1   
 12   9  12  1   
 13  12  13  1   
 14  12  14  1   
 15  12  15  1   
 16  15  16  1   
 17  15  20  1   
 18  16  17  1   
 19  16  18  1   
 20  16  19  1   
 21  20  21  1   
 22  20  22  1   
 23  20  23  1   
 24  23  24  1   
 25  23  25  1   
 26  23  26  1   
 27  25  34  1   
 28  26  27  1   
 29  26  28  1   
 30  26  30  1   
 31  28  29  1   
 32  30  31  1   
 33  30  32  1   
 34  30  34  1   
 35  32  33  1   
 36  34  35  1   
 37  34  51  1   
 38  37  38  2   
 39  37  43  1   
 40  38  39  1   
 41  38  40  1   
 42  40  41  2   
 43  41  42  1   
 44  41  51  1   
 45  42  43  1   
 46  42  47  2   
 47  43  44  2   
 48  44  45  1   
 49  44  46  1   
 50  47  48  1   
 51  48  49  1   
 52  48  50  1   
 53  48  51  1   
@<TRIPOS>SUBSTRUCTURE
  1 SAM  26 GROUP 4 B **** 0

# MOE 2022.02 (io_trps.svl 2020.11)
