# created with PyMOL 2.5.0
@<TRIPOS>MOLECULE
3ELU
27 29 1                 
SMALL
USER_CHARGES
@<TRIPOS>ATOM
1	   N	-23.157	-3.212	8.033	N.3	1	SAM4633	0.000	
2	  CA	-23.558	-1.796	7.768	C.3	1	SAM4633	0.000	
3	   C	-22.604	-1.127	6.791	C.2	1	SAM4633	0.000	
4	   O	-21.551	-1.686	6.470	O.co2	1	SAM4633	0.000	
5	  CB	-23.630	-1.012	9.062	C.3	1	SAM4633	0.000	
6	  CG	-25.019	-1.111	9.673	C.3	1	SAM4633	0.000	
7	  SD	-25.017	-0.422	11.321	S.3	1	SAM4633	0.000	
8	  CE	-25.167	1.335	10.907	C.3	1	SAM4633	0.000	
9	 C5'	-26.577	-0.995	12.047	C.3	1	SAM4633	0.000	
10	 C4'	-27.846	-0.540	11.342	C.3	1	SAM4633	0.000	
11	 O4'	-28.927	-1.355	11.748	O.3	1	SAM4633	0.000	
12	 C3'	-28.199	0.885	11.737	C.3	1	SAM4633	0.000	
13	 O3'	-28.225	1.684	10.580	O.3	1	SAM4633	0.000	
14	 C2'	-29.569	0.794	12.380	C.3	1	SAM4633	0.000	
15	 O2'	-30.412	1.836	11.962	O.3	1	SAM4633	0.000	
16	 C1'	-30.072	-0.541	11.860	C.3	1	SAM4633	0.000	
17	 OXT	-22.885	-0.041	6.279	O.co2	1	SAM4633	0.000	
18	  N1	-34.531	-3.114	11.940	N.2	1	SAM4633	0.000	
19	  C2	-33.833	-2.628	10.861	C.2	1	SAM4633	0.000	
20	  N3	-32.642	-1.963	11.053	N.2	1	SAM4633	0.000	
21	  C4	-32.174	-1.787	12.302	C.2	1	SAM4633	0.000	
22	  C5	-32.846	-2.277	13.410	C.2	1	SAM4633	0.000	
23	  C6	-34.042	-2.955	13.224	C.2	1	SAM4633	0.000	
24	  N6	-34.714	-3.438	14.266	N.pl3	1	SAM4633	0.000	
25	  N7	-32.129	-1.955	14.508	N.2	1	SAM4633	0.000	
26	  C8	-31.020	-1.282	14.124	C.2	1	SAM4633	0.000	
27	  N9	-31.046	-1.174	12.754	N.2	1	SAM4633	0.000	
@<TRIPOS>BOND
1 1 2 1
2 2 3 1
3 2 5 1
4 3 4 ar
5 3 17 ar
6 5 6 1
7 6 7 1
8 7 8 1
9 7 9 1
10 9 10 1
11 10 11 1
12 10 12 1
13 11 16 1
14 12 13 1
15 12 14 1
16 14 15 1
17 14 16 1
18 16 27 1
19 18 19 ar
20 18 23 ar
21 19 20 ar
22 20 21 ar
23 21 22 ar
24 21 27 ar
25 22 23 ar
26 22 25 ar
27 23 24 1
28 25 26 ar
29 26 27 ar
@<TRIPOS>SUBSTRUCTURE
1	SAM4633	1	GROUP	1 A	SAM
