# created with PyMOL 2.4.0
@<TRIPOS>MOLECULE
temp
50 52 1                 
SMALL
USER_CHARGES
@<TRIPOS>ATOM
1	   N	-23.157	-3.212	8.033	N.4	1	SAM1	0.000	
2	  CA	-23.558	-1.796	7.768	C.3	1	SAM1	0.000	
3	   C	-22.604	-1.127	6.791	C.2	1	SAM1	0.000	
4	   O	-21.551	-1.686	6.470	O.co2	1	SAM1	0.000	
5	  CB	-23.630	-1.012	9.062	C.3	1	SAM1	0.000	
6	  CG	-25.019	-1.111	9.673	C.3	1	SAM1	0.000	
7	  SD	-25.017	-0.422	11.321	S.3	1	SAM1	0.000	
8	  CE	-25.167	1.335	10.907	C.3	1	SAM1	0.000	
9	 C5'	-26.577	-0.995	12.047	C.3	1	SAM1	0.000	
10	 C4'	-27.846	-0.540	11.342	C.3	1	SAM1	0.000	
11	 O4'	-28.927	-1.355	11.748	O.3	1	SAM1	0.000	
12	 C3'	-28.199	0.885	11.737	C.3	1	SAM1	0.000	
13	 O3'	-28.225	1.684	10.580	O.3	1	SAM1	0.000	
14	 C2'	-29.569	0.794	12.380	C.3	1	SAM1	0.000	
15	 O2'	-30.412	1.836	11.962	O.3	1	SAM1	0.000	
16	 C1'	-30.072	-0.541	11.860	C.3	1	SAM1	0.000	
17	 OXT	-22.885	-0.041	6.279	O.co2	1	SAM1	0.000	
18	  N1	-34.531	-3.114	11.940	N.2	1	SAM1	0.000	
19	  C2	-33.833	-2.628	10.861	C.2	1	SAM1	0.000	
20	  N3	-32.642	-1.963	11.053	N.2	1	SAM1	0.000	
21	  C4	-32.174	-1.787	12.302	C.2	1	SAM1	0.000	
22	  C5	-32.846	-2.277	13.410	C.2	1	SAM1	0.000	
23	  C6	-34.042	-2.955	13.224	C.2	1	SAM1	0.000	
24	  N6	-34.714	-3.438	14.266	N.pl3	1	SAM1	0.000	
25	  N7	-32.129	-1.955	14.508	N.2	1	SAM1	0.000	
26	  C8	-31.020	-1.282	14.124	C.2	1	SAM1	0.000	
27	  N9	-31.046	-1.174	12.754	N.2	1	SAM1	0.000	
28	  HA	-24.549	-1.808	7.314	 H	1	SAM1	0.000	
29	 HB1	-23.402	0.034	8.860	 H	1	SAM1	0.000	
30	 HB2	-22.900	-1.414	9.765	 H	1	SAM1	0.000	
31	 HG1	-25.318	-2.158	9.721	 H	1	SAM1	0.000	
32	 HG2	-25.726	-0.559	9.053	 H	1	SAM1	0.000	
33	 HE1	-24.232	1.686	10.470	 H	1	SAM1	0.000	
34	 HE2	-25.382	1.904	11.811	 H	1	SAM1	0.000	
35	 HE3	-25.977	1.472	10.191	 H	1	SAM1	0.000	
36	  H1	-22.240	-3.229	8.455	 H	1	SAM1	0.000	
37	  H2	-23.136	-3.724	7.163	 H	1	SAM1	0.000	
38	  H2	-34.218	-2.767	9.862	 H	1	SAM1	0.000	
39	  H3	-23.824	-3.639	8.660	 H	1	SAM1	0.000	
40	  H8	-30.251	-0.898	14.778	 H	1	SAM1	0.000	
41	 H1'	-30.592	-0.400	10.913	 H	1	SAM1	0.000	
42	 H2'	-29.540	0.873	13.467	 H	1	SAM1	0.000	
43	 H2'	-30.464	1.801	11.004	 H	1	SAM1	0.000	
44	 H3'	-27.480	1.332	12.423	 H	1	SAM1	0.000	
45	 H3'	-28.494	2.567	10.843	 H	1	SAM1	0.000	
46	 H4'	-27.673	-0.605	10.268	 H	1	SAM1	0.000	
47	 H61	-34.354	-3.312	15.201	 H	1	SAM1	0.000	
48	 H62	-35.584	-3.930	14.122	 H	1	SAM1	0.000	
49	H5'1	-26.619	-0.635	13.075	 H	1	SAM1	0.000	
50	H5'2	-26.566	-2.085	12.044	 H	1	SAM1	0.000	
@<TRIPOS>BOND
1 1 2 1
2 1 36 1
3 1 37 1
4 1 39 1
5 2 3 1
6 2 5 1
7 2 28 1
8 3 4 ar
9 3 17 ar
10 5 6 1
11 5 29 1
12 5 30 1
13 6 7 1
14 6 31 1
15 6 32 1
16 7 8 1
17 7 9 1
18 8 33 1
19 8 34 1
20 8 35 1
21 9 10 1
22 9 49 1
23 9 50 1
24 10 11 1
25 10 12 1
26 10 46 1
27 11 16 1
28 12 13 1
29 12 14 1
30 12 44 1
31 13 45 1
32 14 15 1
33 14 16 1
34 14 42 1
35 15 43 1
36 16 27 1
37 16 41 1
38 18 19 ar
39 18 23 ar
40 19 20 ar
41 19 38 1
42 20 21 ar
43 21 22 ar
44 21 27 ar
45 22 23 ar
46 22 25 ar
47 23 24 1
48 24 47 1
49 24 48 1
50 25 26 ar
51 26 27 ar
52 26 40 1
@<TRIPOS>SUBSTRUCTURE
1	SAM1	1	GROUP	1 A	SAM
