@<TRIPOS>MOLECULE
3ELU.A
51 53 1 0 0 
SMALL
USER_CHARGES


@<TRIPOS>ATOM
  1 N      -23.1570    -3.2120     8.0330 N.4   1 SAM  -0.8530 
  2 H1     -22.2397    -3.2287     8.4554 H     1 SAM   0.4500 
  3 H2     -23.1364    -3.7245     7.1630 H     1 SAM   0.4500 
  4 H3     -23.8240    -3.6392     8.6596 H     1 SAM   0.4500 
  5 CA     -23.5580    -1.7960     7.7680 C.3   1 SAM   0.3170 
  6 HA     -24.5487    -1.8084     7.3136 H     1 SAM   0.0800 
  7 C      -22.6040    -1.1270     6.7910 C.2   1 SAM   0.9060 
  8 O      -21.5510    -1.6860     6.4700 O.co2 1 SAM  -0.9000 
  9 CB     -23.6300    -1.0120     9.0620 C.3   1 SAM  -0.1600 
 10 HB1    -23.4017     0.0344     8.8597 H     1 SAM   0.0800 
 11 HB2    -22.9003    -1.4137     9.7650 H     1 SAM   0.0800 
 12 CG     -25.0190    -1.1110     9.6730 C.3   1 SAM  -0.1525 
 13 HG1    -25.3178    -2.1582     9.7207 H     1 SAM   0.0800 
 14 HG2    -25.7256    -0.5594     9.0528 H     1 SAM   0.0800 
 15 SD     -25.0170    -0.4220    11.3210 S.3   1 SAM   0.9775 
 16 CE     -25.1670     1.3350    10.9070 C.3   1 SAM  -0.2325 
 17 HE1    -24.2323     1.6863    10.4699 H     1 SAM   0.0800 
 18 HE2    -25.3818     1.9043    11.8113 H     1 SAM   0.0800 
 19 HE3    -25.9771     1.4716    10.1907 H     1 SAM   0.0800 
 20 C5'    -26.5770    -0.9950    12.0470 C.3   1 SAM  -0.1525 
 21 H5'1   -26.6189    -0.6349    13.0749 H     1 SAM   0.0800 
 22 H5'2   -26.5660    -2.0849    12.0440 H     1 SAM   0.0800 
 23 C4'    -27.8460    -0.5400    11.3420 C.3   1 SAM   0.2000 
 24 H4'    -27.6728    -0.6055    10.2678 H     1 SAM   0.0800 
 25 O4'    -28.9270    -1.3550    11.7480 O.3   1 SAM  -0.5600 
 26 C3'    -28.1990     0.8850    11.7370 C.3   1 SAM   0.2000 
 27 H3'    -27.4799     1.3323    12.4232 H     1 SAM   0.0800 
 28 O3'    -28.2250     1.6840    10.5800 O.3   1 SAM  -0.6800 
 29 H3'    -28.4940     2.5672    10.8431 H     1 SAM   0.4000 
 30 C2'    -29.5690     0.7940    12.3800 C.3   1 SAM   0.2000 
 31 H2'    -29.5403     0.8726    13.4668 H     1 SAM   0.0800 
 32 O2'    -30.4120     1.8360    11.9620 O.3   1 SAM  -0.6800 
 33 H2'    -30.4638     1.8009    11.0040 H     1 SAM   0.4000 
 34 C1'    -30.0720    -0.5410    11.8600 C.3   1 SAM   0.5691 
 35 H1'    -30.5921    -0.3997    10.9126 H     1 SAM   0.0800 
 36 OXT    -22.8850    -0.0410     6.2790 O.co2 1 SAM  -0.9000 
 37 N1     -34.5310    -3.1140    11.9400 N.2   1 SAM  -0.6610 
 38 C2     -33.8330    -2.6280    10.8610 C.2   1 SAM   0.6010 
 39 H2     -34.2183    -2.7674     9.8617 H     1 SAM   0.0600 
 40 N3     -32.6420    -1.9630    11.0530 N.2   1 SAM  -0.6610 
 41 C4     -32.1740    -1.7870    12.3020 C.2   1 SAM   0.5000 
 42 C5     -32.8460    -2.2770    13.4100 C.2   1 SAM   0.4500 
 43 C6     -34.0420    -2.9550    13.2240 C.2   1 SAM   0.6110 
 44 N6     -34.7140    -3.4380    14.2660 N.2   1 SAM  -0.2000 
 45 H62    -35.5840    -3.9304    14.1216 H     1 SAM   0.4000 
 46 H61    -34.3541    -3.3122    15.2013 H     1 SAM   0.4000 
 47 N7     -32.1290    -1.9550    14.5080 N.2   1 SAM  -0.6960 
 48 C8     -31.0200    -1.2820    14.1240 C.3   1 SAM   0.4551 
 49 H81    -30.1291    -1.8271    14.4359 H     1 SAM   0.0800 
 50 H82    -31.0146    -0.2892    14.5740 H     1 SAM   0.0800 
 51 N9     -31.0460    -1.1740    12.7540 N.pl3 1 SAM  -0.7882 
@<TRIPOS>BOND
  1   1   2  1   
  2   1   3  1   
  3   1   4  1   
  4   1   5  1   
  5   5   6  1   
  6   5   7  1   
  7   5   9  1   
  8   7   8  ar  
  9   7  36  ar  
 10   9  10  1   
 11   9  11  1   
 12   9  12  1   
 13  12  13  1   
 14  12  14  1   
 15  12  15  1   
 16  15  16  1   
 17  15  20  1   
 18  16  17  1   
 19  16  18  1   
 20  16  19  1   
 21  20  21  1   
 22  20  22  1   
 23  20  23  1   
 24  23  24  1   
 25  23  25  1   
 26  23  26  1   
 27  25  34  1   
 28  26  27  1   
 29  26  28  1   
 30  26  30  1   
 31  28  29  1   
 32  30  31  1   
 33  30  32  1   
 34  30  34  1   
 35  32  33  1   
 36  34  35  1   
 37  34  51  1   
 38  37  38  2   
 39  37  43  1   
 40  38  39  1   
 41  38  40  1   
 42  40  41  2   
 43  41  42  1   
 44  41  51  1   
 45  42  43  1   
 46  42  47  2   
 47  43  44  2   
 48  44  45  1   
 49  44  46  1   
 50  47  48  1   
 51  48  49  1   
 52  48  50  1   
 53  48  51  1   
@<TRIPOS>SUBSTRUCTURE
  1 SAM  25 GROUP 4 A **** 0

# MOE 2022.02 (io_trps.svl 2020.11)
