# created with PyMOL 2.4.0
@<TRIPOS>MOLECULE
temp
50 52 1                 
SMALL
USER_CHARGES
@<TRIPOS>ATOM
1	   N	1.075	-5.398	19.943	N.4	1	SAM1	0.000	
2	  CA	0.882	-5.206	21.380	C.3	1	SAM1	0.000	
3	   C	-0.598	-5.396	21.724	C.2	1	SAM1	0.000	
4	   O	-0.968	-5.636	22.875	O.co2	1	SAM1	0.000	
5	  CB	1.463	-3.857	21.830	C.3	1	SAM1	0.000	
6	  CG	1.975	-3.715	23.261	C.3	1	SAM1	0.000	
7	  SD	3.774	-3.772	23.553	S.3	1	SAM1	0.000	
8	  CE	3.983	-2.420	24.740	C.3	1	SAM1	0.000	
9	 C5'	4.648	-3.094	22.117	C.3	1	SAM1	0.000	
10	 C4'	5.319	-4.116	21.186	C.3	1	SAM1	0.000	
11	 O4'	6.361	-4.890	21.803	O.3	1	SAM1	0.000	
12	 C3'	4.337	-5.132	20.630	C.3	1	SAM1	0.000	
13	 O3'	3.592	-4.609	19.535	O.3	1	SAM1	0.000	
14	 C2'	5.219	-6.289	20.240	C.3	1	SAM1	0.000	
15	 O2'	5.837	-6.051	18.981	O.3	1	SAM1	0.000	
16	 C1'	6.284	-6.225	21.320	C.3	1	SAM1	0.000	
17	 OXT	-1.461	-5.337	20.847	O.co2	1	SAM1	0.000	
18	  N1	5.976	-11.186	22.914	N.2	1	SAM1	0.000	
19	  C2	6.208	-10.712	21.640	C.2	1	SAM1	0.000	
20	  N3	6.252	-9.346	21.413	N.2	1	SAM1	0.000	
21	  C4	6.061	-8.493	22.441	C.2	1	SAM1	0.000	
22	  C5	5.814	-8.952	23.731	C.2	1	SAM1	0.000	
23	  C6	5.782	-10.327	23.973	C.2	1	SAM1	0.000	
24	  N6	5.559	-10.826	25.196	N.pl3	1	SAM1	0.000	
25	  N7	5.660	-7.870	24.531	N.2	1	SAM1	0.000	
26	  C8	5.802	-6.756	23.777	C.2	1	SAM1	0.000	
27	  N9	6.022	-7.119	22.472	N.2	1	SAM1	0.000	
28	  HA	1.434	-5.959	21.942	 H	1	SAM1	0.000	
29	 HB1	0.680	-3.111	21.695	 H	1	SAM1	0.000	
30	 HB2	2.299	-3.632	21.167	 H	1	SAM1	0.000	
31	 HG1	1.529	-4.521	23.844	 H	1	SAM1	0.000	
32	 HG2	1.619	-2.756	23.636	 H	1	SAM1	0.000	
33	 HE1	3.499	-2.684	25.680	 H	1	SAM1	0.000	
34	 HE2	3.531	-1.512	24.340	 H	1	SAM1	0.000	
35	 HE3	5.046	-2.250	24.914	 H	1	SAM1	0.000	
36	  H1	0.558	-4.693	19.437	 H	1	SAM1	0.000	
37	  H2	0.743	-6.314	19.678	 H	1	SAM1	0.000	
38	  H2	6.355	-11.403	20.823	 H	1	SAM1	0.000	
39	  H3	2.057	-5.319	19.722	 H	1	SAM1	0.000	
40	  H8	5.750	-5.742	24.144	 H	1	SAM1	0.000	
41	 H1'	7.215	-6.557	20.861	 H	1	SAM1	0.000	
42	 H2'	4.686	-7.236	20.157	 H	1	SAM1	0.000	
43	 H2'	6.437	-6.780	18.810	 H	1	SAM1	0.000	
44	 H3'	3.569	-5.423	21.347	 H	1	SAM1	0.000	
45	 H3'	4.219	-4.333	18.863	 H	1	SAM1	0.000	
46	 H4'	5.738	-3.482	20.404	 H	1	SAM1	0.000	
47	 H61	5.408	-10.202	25.976	 H	1	SAM1	0.000	
48	 H62	5.542	-11.826	25.338	 H	1	SAM1	0.000	
49	H5'1	5.423	-2.422	22.486	 H	1	SAM1	0.000	
50	H5'2	3.928	-2.529	21.526	 H	1	SAM1	0.000	
@<TRIPOS>BOND
1 1 2 1
2 1 36 1
3 1 37 1
4 1 39 1
5 2 3 1
6 2 5 1
7 2 28 1
8 3 4 ar
9 3 17 ar
10 5 6 1
11 5 29 1
12 5 30 1
13 6 7 1
14 6 31 1
15 6 32 1
16 7 8 1
17 7 9 1
18 8 33 1
19 8 34 1
20 8 35 1
21 9 10 1
22 9 49 1
23 9 50 1
24 10 11 1
25 10 12 1
26 10 46 1
27 11 16 1
28 12 13 1
29 12 14 1
30 12 44 1
31 13 45 1
32 14 15 1
33 14 16 1
34 14 42 1
35 15 43 1
36 16 27 1
37 16 41 1
38 18 19 ar
39 18 23 ar
40 19 20 ar
41 19 38 1
42 20 21 ar
43 21 22 ar
44 21 27 ar
45 22 23 ar
46 22 25 ar
47 23 24 1
48 24 47 1
49 24 48 1
50 25 26 ar
51 26 27 ar
52 26 40 1
@<TRIPOS>SUBSTRUCTURE
1	SAM1	1	GROUP	1 B	SAM
