# created with PyMOL 2.5.2
@<TRIPOS>MOLECULE
6NW6
27 29 1                 
SMALL
USER_CHARGES
@<TRIPOS>ATOM
1	   N	1.075	-5.398	19.943	N.3	1	SAM301	0.000	
2	  CA	0.882	-5.206	21.380	C.3	1	SAM301	0.000	
3	   C	-0.598	-5.396	21.724	C.2	1	SAM301	0.000	
4	   O	-0.968	-5.636	22.875	O.co2	1	SAM301	0.000	
5	  CB	1.463	-3.857	21.830	C.3	1	SAM301	0.000	
6	  CG	1.975	-3.715	23.261	C.3	1	SAM301	0.000	
7	  SD	3.774	-3.772	23.553	S.3	1	SAM301	0.000	
8	  CE	3.983	-2.420	24.740	C.3	1	SAM301	0.000	
9	 C5'	4.648	-3.094	22.117	C.3	1	SAM301	0.000	
10	 C4'	5.319	-4.116	21.186	C.3	1	SAM301	0.000	
11	 O4'	6.361	-4.890	21.803	O.3	1	SAM301	0.000	
12	 C3'	4.337	-5.132	20.630	C.3	1	SAM301	0.000	
13	 O3'	3.592	-4.609	19.535	O.3	1	SAM301	0.000	
14	 C2'	5.219	-6.289	20.240	C.3	1	SAM301	0.000	
15	 O2'	5.837	-6.051	18.981	O.3	1	SAM301	0.000	
16	 C1'	6.284	-6.225	21.320	C.3	1	SAM301	0.000	
17	 OXT	-1.461	-5.337	20.847	O.co2	1	SAM301	0.000	
18	  N1	5.976	-11.186	22.914	N.2	1	SAM301	0.000	
19	  C2	6.208	-10.712	21.640	C.2	1	SAM301	0.000	
20	  N3	6.252	-9.346	21.413	N.2	1	SAM301	0.000	
21	  C4	6.061	-8.493	22.441	C.2	1	SAM301	0.000	
22	  C5	5.814	-8.952	23.731	C.2	1	SAM301	0.000	
23	  C6	5.782	-10.327	23.973	C.2	1	SAM301	0.000	
24	  N6	5.559	-10.826	25.196	N.pl3	1	SAM301	0.000	
25	  N7	5.660	-7.870	24.531	N.2	1	SAM301	0.000	
26	  C8	5.802	-6.756	23.777	C.2	1	SAM301	0.000	
27	  N9	6.022	-7.119	22.472	N.2	1	SAM301	0.000	
@<TRIPOS>BOND
1 1 2 1
2 2 3 1
3 2 5 1
4 3 4 ar
5 3 17 ar
6 5 6 1
7 6 7 1
8 7 8 1
9 7 9 1
10 9 10 1
11 10 11 1
12 10 12 1
13 11 16 1
14 12 13 1
15 12 14 1
16 14 15 1
17 14 16 1
18 16 27 1
19 18 19 ar
20 18 23 ar
21 19 20 ar
22 20 21 ar
23 21 22 ar
24 21 27 ar
25 22 23 ar
26 22 25 ar
27 23 24 1
28 25 26 ar
29 26 27 ar
@<TRIPOS>SUBSTRUCTURE
1	SAM301	1	GROUP	1 B	SAM
