@<TRIPOS>MOLECULE
6NW6.B
51 53 1 0 0 
SMALL
USER_CHARGES


@<TRIPOS>ATOM
  1 N        1.0750    -5.3980    19.9430 N.4   1 SAM  -0.8530 
  2 H1       0.5580    -4.6933    19.4368 H     1 SAM   0.4500 
  3 H2       0.7430    -6.3144    19.6782 H     1 SAM   0.4500 
  4 H3       2.0573    -5.3189    19.7217 H     1 SAM   0.4500 
  5 CA       0.8820    -5.2060    21.3800 C.3   1 SAM   0.3170 
  6 HA       1.4339    -5.9592    21.9423 H     1 SAM   0.0800 
  7 C       -0.5980    -5.3960    21.7240 C.2   1 SAM   0.9060 
  8 O       -0.9680    -5.6360    22.8750 O.co2 1 SAM  -0.9000 
  9 CB       1.4630    -3.8570    21.8300 C.3   1 SAM  -0.1600 
 10 HB1      0.6804    -3.1105    21.6947 H     1 SAM   0.0800 
 11 HB2      2.2986    -3.6316    21.1674 H     1 SAM   0.0800 
 12 CG       1.9750    -3.7150    23.2610 C.3   1 SAM  -0.1525 
 13 HG1      1.5291    -4.5212    23.8435 H     1 SAM   0.0800 
 14 HG2      1.6187    -2.7557    23.6362 H     1 SAM   0.0800 
 15 SD       3.7740    -3.7720    23.5530 S.3   1 SAM   0.9775 
 16 CE       3.9830    -2.4200    24.7400 C.3   1 SAM  -0.2325 
 17 HE1      3.4985    -2.6838    25.6801 H     1 SAM   0.0800 
 18 HE2      3.5307    -1.5124    24.3403 H     1 SAM   0.0800 
 19 HE3      5.0456    -2.2502    24.9139 H     1 SAM   0.0800 
 20 C5'      4.6480    -3.0940    22.1170 C.3   1 SAM  -0.1525 
 21 H5'1     5.4226    -2.4218    22.4861 H     1 SAM   0.0800 
 22 H5'2     3.9277    -2.5285    21.5259 H     1 SAM   0.0800 
 23 C4'      5.3190    -4.1160    21.1860 C.3   1 SAM   0.2000 
 24 H4'      5.7377    -3.4821    20.4044 H     1 SAM   0.0800 
 25 O4'      6.3610    -4.8900    21.8030 O.3   1 SAM  -0.5600 
 26 C3'      4.3370    -5.1320    20.6300 C.3   1 SAM   0.2000 
 27 H3'      3.5690    -5.4225    21.3468 H     1 SAM   0.0800 
 28 O3'      3.5920    -4.6090    19.5350 O.3   1 SAM  -0.6800 
 29 H3'      4.2192    -4.3327    18.8628 H     1 SAM   0.4000 
 30 C2'      5.2190    -6.2890    20.2400 C.3   1 SAM   0.2000 
 31 H2'      4.6858    -7.2361    20.1574 H     1 SAM   0.0800 
 32 O2'      5.8370    -6.0510    18.9810 O.3   1 SAM  -0.6800 
 33 H2'      6.4370    -6.7805    18.8096 H     1 SAM   0.4000 
 34 C1'      6.2840    -6.2250    21.3200 C.3   1 SAM   0.5691 
 35 H1'      7.2155    -6.5566    20.8613 H     1 SAM   0.0800 
 36 OXT     -1.4610    -5.3370    20.8470 O.co2 1 SAM  -0.9000 
 37 N1       5.9760   -11.1860    22.9140 N.2   1 SAM  -0.6610 
 38 C2       6.2080   -10.7120    21.6400 C.2   1 SAM   0.6010 
 39 H2       6.3548   -11.4026    20.8227 H     1 SAM   0.0600 
 40 N3       6.2520    -9.3460    21.4130 N.2   1 SAM  -0.6610 
 41 C4       6.0610    -8.4930    22.4410 C.2   1 SAM   0.5000 
 42 C5       5.8140    -8.9520    23.7310 C.2   1 SAM   0.4500 
 43 C6       5.7820   -10.3270    23.9730 C.2   1 SAM   0.6110 
 44 N6       5.5590   -10.8260    25.1960 N.2   1 SAM  -0.2000 
 45 H62      5.5420   -11.8258    25.3381 H     1 SAM   0.4000 
 46 H61      5.4078   -10.2024    25.9760 H     1 SAM   0.4000 
 47 N7       5.6600    -7.8700    24.5310 N.2   1 SAM  -0.6960 
 48 C8       5.8020    -6.7560    23.7770 C.3   1 SAM   0.4551 
 49 H81      6.6490    -6.1747    24.1414 H     1 SAM   0.0800 
 50 H82      4.8949    -6.1550    23.8402 H     1 SAM   0.0800 
 51 N9       6.0220    -7.1190    22.4720 N.pl3 1 SAM  -0.7882 
@<TRIPOS>BOND
  1   1   2  1   
  2   1   3  1   
  3   1   4  1   
  4   1   5  1   
  5   5   6  1   
  6   5   7  1   
  7   5   9  1   
  8   7   8  ar  
  9   7  36  ar  
 10   9  10  1   
 11   9  11  1   
 12   9  12  1   
 13  12  13  1   
 14  12  14  1   
 15  12  15  1   
 16  15  16  1   
 17  15  20  1   
 18  16  17  1   
 19  16  18  1   
 20  16  19  1   
 21  20  21  1   
 22  20  22  1   
 23  20  23  1   
 24  23  24  1   
 25  23  25  1   
 26  23  26  1   
 27  25  34  1   
 28  26  27  1   
 29  26  28  1   
 30  26  30  1   
 31  28  29  1   
 32  30  31  1   
 33  30  32  1   
 34  30  34  1   
 35  32  33  1   
 36  34  35  1   
 37  34  51  1   
 38  37  38  2   
 39  37  43  1   
 40  38  39  1   
 41  38  40  1   
 42  40  41  2   
 43  41  42  1   
 44  41  51  1   
 45  42  43  1   
 46  42  47  2   
 47  43  44  2   
 48  44  45  1   
 49  44  46  1   
 50  47  48  1   
 51  48  49  1   
 52  48  50  1   
 53  48  51  1   
@<TRIPOS>SUBSTRUCTURE
  1 SAM  26 GROUP 4 B **** 0

# MOE 2022.02 (io_trps.svl 2020.11)
