# created with PyMOL 2.5.2
@<TRIPOS>MOLECULE
6NW6
27 29 1                 
SMALL
USER_CHARGES
@<TRIPOS>ATOM
1	   N	33.039	-7.128	32.712	N.3	1	SAM301	0.000	
2	  CA	33.221	-6.895	31.279	C.3	1	SAM301	0.000	
3	   C	34.665	-7.226	30.890	C.2	1	SAM301	0.000	
4	   O	34.984	-7.454	29.722	O.co2	1	SAM301	0.000	
5	  CB	32.779	-5.474	30.899	C.3	1	SAM301	0.000	
6	  CG	32.256	-5.217	29.488	C.3	1	SAM301	0.000	
7	  SD	30.455	-5.070	29.240	S.3	1	SAM301	0.000	
8	  CE	30.368	-3.654	28.114	C.3	1	SAM301	0.000	
9	 C5'	29.688	-4.366	30.724	C.3	1	SAM301	0.000	
10	 C4'	28.931	-5.351	31.628	C.3	1	SAM301	0.000	
11	 O4'	27.800	-5.983	31.006	O.3	1	SAM301	0.000	
12	 C3'	29.810	-6.488	32.117	C.3	1	SAM301	0.000	
13	 O3'	30.629	-6.096	33.214	O.3	1	SAM301	0.000	
14	 C2'	28.818	-7.562	32.482	C.3	1	SAM301	0.000	
15	 O2'	28.254	-7.315	33.764	O.3	1	SAM301	0.000	
16	 C1'	27.744	-7.338	31.432	C.3	1	SAM301	0.000	
17	 OXT	35.548	-7.296	31.748	O.co2	1	SAM301	0.000	
18	  N1	27.488	-12.230	29.628	N.2	1	SAM301	0.000	
19	  C2	27.334	-11.791	30.927	C.2	1	SAM301	0.000	
20	  N3	27.441	-10.438	31.211	N.2	1	SAM301	0.000	
21	  C4	27.700	-9.566	30.214	C.2	1	SAM301	0.000	
22	  C5	27.870	-9.992	28.900	C.2	1	SAM301	0.000	
23	  C6	27.751	-11.352	28.601	C.2	1	SAM301	0.000	
24	  N6	27.894	-11.818	27.354	N.pl3	1	SAM301	0.000	
25	  N7	28.123	-8.900	28.142	N.2	1	SAM301	0.000	
26	  C8	28.116	-7.811	28.944	C.2	1	SAM301	0.000	
27	  N9	27.885	-8.204	30.238	N.2	1	SAM301	0.000	
@<TRIPOS>BOND
1 1 2 1
2 2 3 1
3 2 5 1
4 3 4 ar
5 3 17 ar
6 5 6 1
7 6 7 1
8 7 8 1
9 7 9 1
10 9 10 1
11 10 11 1
12 10 12 1
13 11 16 1
14 12 13 1
15 12 14 1
16 14 15 1
17 14 16 1
18 16 27 1
19 18 19 ar
20 18 23 ar
21 19 20 ar
22 20 21 ar
23 21 22 ar
24 21 27 ar
25 22 23 ar
26 22 25 ar
27 23 24 1
28 25 26 ar
29 26 27 ar
@<TRIPOS>SUBSTRUCTURE
1	SAM301	1	GROUP	1 B	SAM
