@<TRIPOS>MOLECULE
6NW6.B
51 53 1 0 0 
SMALL
USER_CHARGES


@<TRIPOS>ATOM
  1 N       33.0390    -7.1280    32.7120 N.4   1 SAM  -0.8530 
  2 H1      33.6395    -6.5052    33.2333 H     1 SAM   0.4500 
  3 H2      33.2761    -8.0852    32.9302 H     1 SAM   0.4500 
  4 H3      32.0759    -6.9544    32.9617 H     1 SAM   0.4500 
  5 CA      33.2210    -6.8950    31.2790 C.3   1 SAM   0.3170 
  6 HA      32.5793    -7.5600    30.7009 H     1 SAM   0.0800 
  7 C       34.6650    -7.2260    30.8900 C.2   1 SAM   0.9060 
  8 O       34.9840    -7.4540    29.7220 O.co2 1 SAM  -0.9000 
  9 CB      32.7790    -5.4740    30.8990 C.3   1 SAM  -0.1600 
 10 HB1     33.6398    -4.8214    31.0450 H     1 SAM   0.0800 
 11 HB2     31.9861    -5.1898    31.5908 H     1 SAM   0.0800 
 12 CG      32.2560    -5.2170    29.4880 C.3   1 SAM  -0.1525 
 13 HG1     32.6007    -6.0402    28.8623 H     1 SAM   0.0800 
 14 HG2     32.7053    -4.2857    29.1431 H     1 SAM   0.0800 
 15 SD      30.4550    -5.0700    29.2400 S.3   1 SAM   0.9775 
 16 CE      30.3680    -3.6540    28.1140 C.3   1 SAM  -0.2325 
 17 HE1     30.8023    -3.9273    27.1523 H     1 SAM   0.0800 
 18 HE2     30.9229    -2.8174    28.5387 H     1 SAM   0.0800 
 19 HE3     29.3264    -3.3651    27.9733 H     1 SAM   0.0800 
 20 C5'     29.6880    -4.3660    30.7240 C.3   1 SAM  -0.1525 
 21 H5'1    28.9823    -3.6001    30.4023 H     1 SAM   0.0800 
 22 H5'2    30.4765    -3.9063    31.3198 H     1 SAM   0.0800 
 23 C4'     28.9310    -5.3510    31.6280 C.3   1 SAM   0.2000 
 24 H4'     28.5981    -4.7109    32.4451 H     1 SAM   0.0800 
 25 O4'     27.8000    -5.9830    31.0060 O.3   1 SAM  -0.5600 
 26 C3'     29.8100    -6.4880    32.1170 C.3   1 SAM   0.2000 
 27 H3'     30.5274    -6.8255    31.3690 H     1 SAM   0.0800 
 28 O3'     30.6290    -6.0960    33.2140 O.3   1 SAM  -0.6800 
 29 H3'     30.0488    -5.7856    33.9130 H     1 SAM   0.4000 
 30 C2'     28.8180    -7.5620    32.4820 C.3   1 SAM   0.2000 
 31 H2'     29.2492    -8.5626    32.5132 H     1 SAM   0.0800 
 32 O2'     28.2540    -7.3150    33.7640 O.3   1 SAM  -0.6800 
 33 H2'     27.5835    -7.9841    33.9199 H     1 SAM   0.4000 
 34 C1'     27.7440    -7.3380    31.4320 C.3   1 SAM   0.5691 
 35 H1'     26.7920    -7.5882    31.9003 H     1 SAM   0.0800 
 36 OXT     35.5480    -7.2960    31.7480 O.co2 1 SAM  -0.9000 
 37 N1      27.4880   -12.2300    29.6280 N.2   1 SAM  -0.6610 
 38 C2      27.3340   -11.7910    30.9270 C.2   1 SAM   0.6010 
 39 H2      27.1312   -12.4974    31.7183 H     1 SAM   0.0600 
 40 N3      27.4410   -10.4380    31.2110 N.2   1 SAM  -0.6610 
 41 C4      27.7000    -9.5660    30.2140 C.2   1 SAM   0.5000 
 42 C5      27.8700    -9.9920    28.9000 C.2   1 SAM   0.4500 
 43 C6      27.7510   -11.3520    28.6010 C.2   1 SAM   0.6110 
 44 N6      27.8940   -11.8180    27.3540 N.2   1 SAM  -0.2000 
 45 H62     27.8020   -12.8070    27.1708 H     1 SAM   0.4000 
 46 H61     28.0939   -11.1806    26.5965 H     1 SAM   0.4000 
 47 N7      28.1230    -8.9000    28.1420 N.2   1 SAM  -0.6960 
 48 C8      28.1160    -7.8110    28.9440 C.3   1 SAM   0.4551 
 49 H81     27.3287    -7.1282    28.6245 H     1 SAM   0.0800 
 50 H82     29.0807    -7.3073    28.8829 H     1 SAM   0.0800 
 51 N9      27.8850    -8.2040    30.2380 N.pl3 1 SAM  -0.7882 
@<TRIPOS>BOND
  1   1   2  1   
  2   1   3  1   
  3   1   4  1   
  4   1   5  1   
  5   5   6  1   
  6   5   7  1   
  7   5   9  1   
  8   7   8  ar  
  9   7  36  ar  
 10   9  10  1   
 11   9  11  1   
 12   9  12  1   
 13  12  13  1   
 14  12  14  1   
 15  12  15  1   
 16  15  16  1   
 17  15  20  1   
 18  16  17  1   
 19  16  18  1   
 20  16  19  1   
 21  20  21  1   
 22  20  22  1   
 23  20  23  1   
 24  23  24  1   
 25  23  25  1   
 26  23  26  1   
 27  25  34  1   
 28  26  27  1   
 29  26  28  1   
 30  26  30  1   
 31  28  29  1   
 32  30  31  1   
 33  30  32  1   
 34  30  34  1   
 35  32  33  1   
 36  34  35  1   
 37  34  51  1   
 38  37  38  2   
 39  37  43  1   
 40  38  39  1   
 41  38  40  1   
 42  40  41  2   
 43  41  42  1   
 44  41  51  1   
 45  42  43  1   
 46  42  47  2   
 47  43  44  2   
 48  44  45  1   
 49  44  46  1   
 50  47  48  1   
 51  48  49  1   
 52  48  50  1   
 53  48  51  1   
@<TRIPOS>SUBSTRUCTURE
  1 SAM  26 GROUP 4 B **** 0

# MOE 2022.02 (io_trps.svl 2020.11)
