# created with PyMOL 2.5.0
@<TRIPOS>MOLECULE
3AIA
20 22 1                 
SMALL
USER_CHARGES
@<TRIPOS>ATOM
1	  CG	2.243	-2.973	22.532	C.3	1	SAM206	0.000	
2	  SD	3.725	-3.623	23.357	S.3	1	SAM206	0.000	
3	 C5'	5.026	-3.055	22.227	C.3	1	SAM206	0.000	
4	 C4'	5.458	-4.095	21.196	C.3	1	SAM206	0.000	
5	 O4'	6.321	-5.033	21.811	O.3	1	SAM206	0.000	
6	 C3'	4.313	-4.934	20.634	C.3	1	SAM206	0.000	
7	 O3'	3.700	-4.344	19.504	O.3	1	SAM206	0.000	
8	 C2'	4.990	-6.225	20.265	C.3	1	SAM206	0.000	
9	 O2'	5.569	-6.057	18.989	O.3	1	SAM206	0.000	
10	 C1'	6.110	-6.323	21.273	C.3	1	SAM206	0.000	
11	  N1	6.222	-11.219	22.995	N.2	1	SAM206	0.000	
12	  C2	6.481	-10.761	21.717	C.2	1	SAM206	0.000	
13	  N3	6.391	-9.410	21.438	N.2	1	SAM206	0.000	
14	  C4	6.041	-8.560	22.439	C.2	1	SAM206	0.000	
15	  C5	5.780	-8.995	23.739	C.2	1	SAM206	0.000	
16	  C6	5.877	-10.358	24.011	C.2	1	SAM206	0.000	
17	  N6	5.637	-10.852	25.226	N.pl3	1	SAM206	0.000	
18	  N7	5.472	-7.903	24.496	N.2	1	SAM206	0.000	
19	  C8	5.529	-6.811	23.705	C.2	1	SAM206	0.000	
20	  N9	5.866	-7.207	22.431	N.2	1	SAM206	0.000	
@<TRIPOS>BOND
1 1 2 1
2 2 3 1
3 3 4 1
4 4 5 1
5 4 6 1
6 5 10 1
7 6 7 1
8 6 8 1
9 8 9 1
10 8 10 1
11 10 20 1
12 11 12 ar
13 11 16 ar
14 12 13 ar
15 13 14 ar
16 14 15 ar
17 14 20 ar
18 15 16 ar
19 15 18 ar
20 16 17 1
21 18 19 ar
22 19 20 ar
@<TRIPOS>SUBSTRUCTURE
1	SAM206	1	GROUP	1 A	SAM
