# created with PyMOL 2.5.0
@<TRIPOS>MOLECULE
3AIA
20 22 1                 
SMALL
USER_CHARGES
@<TRIPOS>ATOM
1	  CG	32.168	-4.796	30.092	C.3	1	SAM206	0.000	
2	  SD	30.528	-5.039	29.361	S.3	1	SAM206	0.000	
3	 C5'	29.416	-4.306	30.589	C.3	1	SAM206	0.000	
4	 C4'	28.845	-5.296	31.603	C.3	1	SAM206	0.000	
5	 O4'	27.785	-6.048	31.042	O.3	1	SAM206	0.000	
6	 C3'	29.854	-6.312	32.121	C.3	1	SAM206	0.000	
7	 O3'	30.534	-5.844	33.261	O.3	1	SAM206	0.000	
8	 C2'	29.013	-7.530	32.424	C.3	1	SAM206	0.000	
9	 O2'	28.526	-7.440	33.742	O.3	1	SAM206	0.000	
10	 C1'	27.837	-7.397	31.474	C.3	1	SAM206	0.000	
11	  N1	27.297	-12.264	29.547	N.2	1	SAM206	0.000	
12	  C2	27.091	-11.832	30.841	C.2	1	SAM206	0.000	
13	  N3	27.285	-10.502	31.170	N.2	1	SAM206	0.000	
14	  C4	27.686	-9.612	30.230	C.2	1	SAM206	0.000	
15	  C5	27.893	-10.025	28.920	C.2	1	SAM206	0.000	
16	  C6	27.699	-11.359	28.583	C.2	1	SAM206	0.000	
17	  N6	27.895	-11.780	27.342	N.pl3	1	SAM206	0.000	
18	  N7	28.277	-8.946	28.206	N.2	1	SAM206	0.000	
19	  C8	28.316	-7.871	29.024	C.2	1	SAM206	0.000	
20	  N9	27.953	-8.267	30.285	N.2	1	SAM206	0.000	
@<TRIPOS>BOND
1 1 2 1
2 2 3 1
3 3 4 1
4 4 5 1
5 4 6 1
6 5 10 1
7 6 7 1
8 6 8 1
9 8 9 1
10 8 10 1
11 10 20 1
12 11 12 ar
13 11 16 ar
14 12 13 ar
15 13 14 ar
16 14 15 ar
17 14 20 ar
18 15 16 ar
19 15 18 ar
20 16 17 1
21 18 19 ar
22 19 20 ar
@<TRIPOS>SUBSTRUCTURE
1	SAM206	1	GROUP	1 B	SAM
