# created with PyMOL 2.4.0
@<TRIPOS>MOLECULE
temp
50 52 1                 
SMALL
USER_CHARGES
@<TRIPOS>ATOM
1	   N	33.039	-7.128	32.712	N.4	1	SAM1	0.000	
2	  CA	33.221	-6.895	31.279	C.3	1	SAM1	0.000	
3	   C	34.665	-7.226	30.890	C.2	1	SAM1	0.000	
4	   O	34.984	-7.454	29.722	O.co2	1	SAM1	0.000	
5	  CB	32.779	-5.474	30.899	C.3	1	SAM1	0.000	
6	  CG	32.256	-5.217	29.488	C.3	1	SAM1	0.000	
7	  SD	30.455	-5.070	29.240	S.3	1	SAM1	0.000	
8	  CE	30.368	-3.654	28.114	C.3	1	SAM1	0.000	
9	 C5'	29.688	-4.366	30.724	C.3	1	SAM1	0.000	
10	 C4'	28.931	-5.351	31.628	C.3	1	SAM1	0.000	
11	 O4'	27.800	-5.983	31.006	O.3	1	SAM1	0.000	
12	 C3'	29.810	-6.488	32.117	C.3	1	SAM1	0.000	
13	 O3'	30.629	-6.096	33.214	O.3	1	SAM1	0.000	
14	 C2'	28.818	-7.562	32.482	C.3	1	SAM1	0.000	
15	 O2'	28.254	-7.315	33.764	O.3	1	SAM1	0.000	
16	 C1'	27.744	-7.338	31.432	C.3	1	SAM1	0.000	
17	 OXT	35.548	-7.296	31.748	O.co2	1	SAM1	0.000	
18	  N1	27.488	-12.230	29.628	N.2	1	SAM1	0.000	
19	  C2	27.334	-11.791	30.927	C.2	1	SAM1	0.000	
20	  N3	27.441	-10.438	31.211	N.2	1	SAM1	0.000	
21	  C4	27.700	-9.566	30.214	C.2	1	SAM1	0.000	
22	  C5	27.870	-9.992	28.900	C.2	1	SAM1	0.000	
23	  C6	27.751	-11.352	28.601	C.2	1	SAM1	0.000	
24	  N6	27.894	-11.818	27.354	N.pl3	1	SAM1	0.000	
25	  N7	28.123	-8.900	28.142	N.2	1	SAM1	0.000	
26	  C8	28.116	-7.811	28.944	C.2	1	SAM1	0.000	
27	  N9	27.885	-8.204	30.238	N.2	1	SAM1	0.000	
28	  HA	32.579	-7.560	30.701	 H	1	SAM1	0.000	
29	 HB1	33.640	-4.821	31.045	 H	1	SAM1	0.000	
30	 HB2	31.986	-5.190	31.591	 H	1	SAM1	0.000	
31	 HG1	32.601	-6.040	28.862	 H	1	SAM1	0.000	
32	 HG2	32.705	-4.286	29.143	 H	1	SAM1	0.000	
33	 HE1	30.802	-3.927	27.152	 H	1	SAM1	0.000	
34	 HE2	30.923	-2.817	28.539	 H	1	SAM1	0.000	
35	 HE3	29.326	-3.365	27.973	 H	1	SAM1	0.000	
36	  H1	33.639	-6.505	33.233	 H	1	SAM1	0.000	
37	  H2	33.276	-8.085	32.930	 H	1	SAM1	0.000	
38	  H2	27.131	-12.497	31.718	 H	1	SAM1	0.000	
39	  H3	32.076	-6.954	32.962	 H	1	SAM1	0.000	
40	  H8	28.268	-6.793	28.617	 H	1	SAM1	0.000	
41	 H1'	26.792	-7.588	31.900	 H	1	SAM1	0.000	
42	 H2'	29.249	-8.563	32.513	 H	1	SAM1	0.000	
43	 H2'	27.583	-7.984	33.920	 H	1	SAM1	0.000	
44	 H3'	30.527	-6.826	31.369	 H	1	SAM1	0.000	
45	 H3'	30.049	-5.786	33.913	 H	1	SAM1	0.000	
46	 H4'	28.598	-4.711	32.445	 H	1	SAM1	0.000	
47	 H61	28.094	-11.181	26.597	 H	1	SAM1	0.000	
48	 H62	27.802	-12.807	27.171	 H	1	SAM1	0.000	
49	H5'1	28.982	-3.600	30.402	 H	1	SAM1	0.000	
50	H5'2	30.476	-3.906	31.320	 H	1	SAM1	0.000	
@<TRIPOS>BOND
1 1 2 1
2 1 36 1
3 1 37 1
4 1 39 1
5 2 3 1
6 2 5 1
7 2 28 1
8 3 4 ar
9 3 17 ar
10 5 6 1
11 5 29 1
12 5 30 1
13 6 7 1
14 6 31 1
15 6 32 1
16 7 8 1
17 7 9 1
18 8 33 1
19 8 34 1
20 8 35 1
21 9 10 1
22 9 49 1
23 9 50 1
24 10 11 1
25 10 12 1
26 10 46 1
27 11 16 1
28 12 13 1
29 12 14 1
30 12 44 1
31 13 45 1
32 14 15 1
33 14 16 1
34 14 42 1
35 15 43 1
36 16 27 1
37 16 41 1
38 18 19 ar
39 18 23 ar
40 19 20 ar
41 19 38 1
42 20 21 ar
43 21 22 ar
44 21 27 ar
45 22 23 ar
46 22 25 ar
47 23 24 1
48 24 47 1
49 24 48 1
50 25 26 ar
51 26 27 ar
52 26 40 1
@<TRIPOS>SUBSTRUCTURE
1	SAM1	1	GROUP	1 B	SAM
