# created with PyMOL 2.5.0
@<TRIPOS>MOLECULE
5JIN
27 29 1                 
SMALL
USER_CHARGES
@<TRIPOS>ATOM
1	   N	54.708	-1.225	98.376	N.3	1	SAM1205	0.000	
2	  CA	55.090	-0.343	97.266	C.3	1	SAM1205	0.000	
3	   C	54.303	-0.618	95.999	C.2	1	SAM1205	0.000	
4	   O	54.698	0.025	94.984	O.co2	1	SAM1205	0.000	
5	  CB	56.590	-0.558	96.938	C.3	1	SAM1205	0.000	
6	  CG	57.510	0.086	97.934	C.3	1	SAM1205	0.000	
7	  SD	57.595	1.780	97.750	S.3	1	SAM1205	0.000	
8	  CE	59.244	2.121	97.733	C.3	1	SAM1205	0.000	
9	 C5'	57.238	2.699	99.111	C.3	1	SAM1205	0.000	
10	 C4'	55.735	2.655	99.499	C.3	1	SAM1205	0.000	
11	 O4'	55.230	1.306	99.721	O.3	1	SAM1205	0.000	
12	 C3'	55.440	3.396	100.798	C.3	1	SAM1205	0.000	
13	 O3'	55.216	4.791	100.627	O.3	1	SAM1205	0.000	
14	 C2'	54.149	2.714	101.188	C.3	1	SAM1205	0.000	
15	 O2'	53.078	3.128	100.324	O.3	1	SAM1205	0.000	
16	 C1'	54.423	1.248	100.919	C.3	1	SAM1205	0.000	
17	 OXT	53.326	-1.438	96.009	O.co2	1	SAM1205	0.000	
18	  N1	54.245	-0.269	106.039	N.2	1	SAM1205	0.000	
19	  C2	53.281	0.308	105.272	C.2	1	SAM1205	0.000	
20	  N3	53.485	0.627	103.963	N.2	1	SAM1205	0.000	
21	  C4	54.668	0.409	103.316	C.2	1	SAM1205	0.000	
22	  C5	55.773	-0.200	104.089	C.2	1	SAM1205	0.000	
23	  C6	55.508	-0.550	105.523	C.2	1	SAM1205	0.000	
24	  N6	56.503	-1.130	106.266	N.pl3	1	SAM1205	0.000	
25	  N7	56.822	-0.297	103.243	N.2	1	SAM1205	0.000	
26	  C8	56.437	0.192	102.038	C.2	1	SAM1205	0.000	
27	  N9	55.148	0.625	102.075	N.2	1	SAM1205	0.000	
@<TRIPOS>BOND
1 1 2 1
2 2 3 1
3 2 5 1
4 3 4 ar
5 3 17 ar
6 5 6 1
7 6 7 1
8 7 8 1
9 7 9 1
10 9 10 1
11 10 11 1
12 10 12 1
13 11 16 1
14 12 13 1
15 12 14 1
16 14 15 1
17 14 16 1
18 16 27 1
19 18 19 ar
20 18 23 ar
21 19 20 ar
22 20 21 ar
23 21 22 ar
24 21 27 ar
25 22 23 ar
26 22 25 ar
27 23 24 1
28 25 26 ar
29 26 27 ar
@<TRIPOS>SUBSTRUCTURE
1	SAM1205	1	GROUP	1 B	SAM
