@<TRIPOS>MOLECULE
5JIN.A
51 53 1 0 0 
SMALL
USER_CHARGES


@<TRIPOS>ATOM
  1 N       98.3560    -2.0420    61.3920 N.4   1 SAM  -0.8530 
  2 H1      98.0664    -2.9803    61.6285 H     1 SAM   0.4500 
  3 H2      99.3447    -2.0367    61.1858 H     1 SAM   0.4500 
  4 H3      97.8417    -1.7248    60.5827 H     1 SAM   0.4500 
  5 CA      98.0820    -1.1290    62.5470 C.3   1 SAM   0.3170 
  6 HA      98.3954    -0.1173    62.2892 H     1 SAM   0.0800 
  7 C       98.8880    -1.5350    63.7800 C.2   1 SAM   0.9060 
  8 O       98.4990    -1.0630    64.8900 O.co2 1 SAM  -0.9000 
  9 CB      96.5710    -1.1320    62.8360 C.3   1 SAM  -0.1600 
 10 HB1     96.4286    -0.8556    63.8807 H     1 SAM   0.0800 
 11 HB2     96.2004    -2.1442    62.6742 H     1 SAM   0.0800 
 12 CG      95.7220    -0.1680    61.9670 C.3   1 SAM  -0.1525 
 13 HG1     94.6772    -0.4567    62.0817 H     1 SAM   0.0800 
 14 HG2     96.0257    -0.3076    60.9295 H     1 SAM   0.0800 
 15 SD      95.8380     1.5270    62.3220 S.3   1 SAM   0.9775 
 16 CE      94.2830     2.1410    62.4870 C.3   1 SAM  -0.2325 
 17 HE1     93.8058     1.6923    63.3582 H     1 SAM   0.0800 
 18 HE2     93.7032     1.9067    61.5942 H     1 SAM   0.0800 
 19 HE3     94.3311     3.2223    62.6156 H     1 SAM   0.0800 
 20 C5'     96.2610     2.4090    60.9260 C.3   1 SAM  -0.1525 
 21 H5'1    96.0586     3.4652    61.1036 H     1 SAM   0.0800 
 22 H5'2    95.6536     2.0580    60.0918 H     1 SAM   0.0800 
 23 C4'     97.7460     2.2440    60.5610 C.3   1 SAM   0.2000 
 24 H4'     98.2604     2.5475    61.4728 H     1 SAM   0.0800 
 25 O4'     98.1330     0.8850    60.1950 O.3   1 SAM  -0.5600 
 26 C3'     98.1150     3.0830    59.3570 C.3   1 SAM   0.2000 
 27 H3'     97.3646     3.1775    58.5721 H     1 SAM   0.0800 
 28 O3'     98.3750     4.3990    59.7980 O.3   1 SAM  -0.6800 
 29 H3'     98.6997     4.8986    59.0453 H     1 SAM   0.4000 
 30 C2'     99.3530     2.3720    58.8960 C.3   1 SAM   0.2000 
 31 H2'     99.7344     2.6979    57.9283 H     1 SAM   0.0800 
 32 O2'    100.3900     2.5650    59.8890 O.3   1 SAM  -0.6800 
 33 H2'    100.6064     3.5002    59.9048 H     1 SAM   0.4000 
 34 C1'     98.9040     0.9280    58.9530 C.3   1 SAM   0.5691 
 35 H1'     99.7421     0.2316    58.9289 H     1 SAM   0.0800 
 36 OXT     99.8990    -2.3220    63.6500 O.co2 1 SAM  -0.9000 
 37 N1      98.9160    -0.1920    53.8360 N.2   1 SAM  -0.6610 
 38 C2      99.9260     0.2340    54.6220 C.2   1 SAM   0.6010 
 39 H2     100.8989     0.3939    54.1811 H     1 SAM   0.0600 
 40 N3      99.7620     0.4660    55.9350 N.2   1 SAM  -0.6610 
 41 C4      98.5320     0.3380    56.5190 C.2   1 SAM   0.5000 
 42 C5      97.3740    -0.0680    55.7140 C.2   1 SAM   0.4500 
 43 C6      97.6300    -0.3750    54.2930 C.2   1 SAM   0.6110 
 44 N6      96.5950    -0.7180    53.4860 N.2   1 SAM  -0.2000 
 45 H62     96.7622    -0.9295    52.5126 H     1 SAM   0.4000 
 46 H61     95.6572    -0.7619    53.8585 H     1 SAM   0.4000 
 47 N7      96.3130    -0.1270    56.5490 N.2   1 SAM  -0.6960 
 48 C8      96.7660     0.2310    57.7840 C.3   1 SAM   0.4551 
 49 H81     96.5872    -0.5900    58.4783 H     1 SAM   0.0800 
 50 H82     96.2220     1.1144    58.1182 H     1 SAM   0.0800 
 51 N9      98.0810     0.5090    57.7660 N.pl3 1 SAM  -0.7882 
@<TRIPOS>BOND
  1   1   2  1   
  2   1   3  1   
  3   1   4  1   
  4   1   5  1   
  5   5   6  1   
  6   5   7  1   
  7   5   9  1   
  8   7   8  ar  
  9   7  36  ar  
 10   9  10  1   
 11   9  11  1   
 12   9  12  1   
 13  12  13  1   
 14  12  14  1   
 15  12  15  1   
 16  15  16  1   
 17  15  20  1   
 18  16  17  1   
 19  16  18  1   
 20  16  19  1   
 21  20  21  1   
 22  20  22  1   
 23  20  23  1   
 24  23  24  1   
 25  23  25  1   
 26  23  26  1   
 27  25  34  1   
 28  26  27  1   
 29  26  28  1   
 30  26  30  1   
 31  28  29  1   
 32  30  31  1   
 33  30  32  1   
 34  30  34  1   
 35  32  33  1   
 36  34  35  1   
 37  34  51  1   
 38  37  38  2   
 39  37  43  1   
 40  38  39  1   
 41  38  40  1   
 42  40  41  2   
 43  41  42  1   
 44  41  51  1   
 45  42  43  1   
 46  42  47  2   
 47  43  44  2   
 48  44  45  1   
 49  44  46  1   
 50  47  48  1   
 51  48  49  1   
 52  48  50  1   
 53  48  51  1   
@<TRIPOS>SUBSTRUCTURE
  1 SAM  25 GROUP 4 A **** 0

# MOE 2022.02 (io_trps.svl 2020.11)
