# created with PyMOL 2.4.0
@<TRIPOS>MOLECULE
temp
50 52 1                 
SMALL
USER_CHARGES
@<TRIPOS>ATOM
1	   N	54.708	-1.225	98.376	N.4	1	SAM1	0.000	
2	  CA	55.090	-0.343	97.266	C.3	1	SAM1	0.000	
3	   C	54.303	-0.618	95.999	C.2	1	SAM1	0.000	
4	   O	54.698	0.025	94.984	O.co2	1	SAM1	0.000	
5	  CB	56.590	-0.558	96.938	C.3	1	SAM1	0.000	
6	  CG	57.510	0.086	97.934	C.3	1	SAM1	0.000	
7	  SD	57.595	1.780	97.750	S.3	1	SAM1	0.000	
8	  CE	59.244	2.121	97.733	C.3	1	SAM1	0.000	
9	 C5'	57.238	2.699	99.111	C.3	1	SAM1	0.000	
10	 C4'	55.735	2.655	99.499	C.3	1	SAM1	0.000	
11	 O4'	55.230	1.306	99.721	O.3	1	SAM1	0.000	
12	 C3'	55.440	3.396	100.798	C.3	1	SAM1	0.000	
13	 O3'	55.216	4.791	100.627	O.3	1	SAM1	0.000	
14	 C2'	54.149	2.714	101.188	C.3	1	SAM1	0.000	
15	 O2'	53.078	3.128	100.324	O.3	1	SAM1	0.000	
16	 C1'	54.423	1.248	100.919	C.3	1	SAM1	0.000	
17	 OXT	53.326	-1.438	96.009	O.co2	1	SAM1	0.000	
18	  N1	54.245	-0.269	106.039	N.2	1	SAM1	0.000	
19	  C2	53.281	0.308	105.272	C.2	1	SAM1	0.000	
20	  N3	53.485	0.627	103.963	N.2	1	SAM1	0.000	
21	  C4	54.668	0.409	103.316	C.2	1	SAM1	0.000	
22	  C5	55.773	-0.200	104.089	C.2	1	SAM1	0.000	
23	  C6	55.508	-0.550	105.523	C.2	1	SAM1	0.000	
24	  N6	56.503	-1.130	106.266	N.pl3	1	SAM1	0.000	
25	  N7	56.822	-0.297	103.243	N.2	1	SAM1	0.000	
26	  C8	56.437	0.192	102.038	C.2	1	SAM1	0.000	
27	  N9	55.148	0.625	102.075	N.2	1	SAM1	0.000	
28	  HA	54.881	0.677	97.588	 H	1	SAM1	0.000	
29	 HB1	56.794	-0.135	95.954	 H	1	SAM1	0.000	
30	 HB2	56.791	-1.629	96.922	 H	1	SAM1	0.000	
31	 HG1	58.509	-0.330	97.805	 H	1	SAM1	0.000	
32	 HG2	57.150	-0.138	98.938	 H	1	SAM1	0.000	
33	 HE1	59.713	1.607	96.894	 H	1	SAM1	0.000	
34	 HE2	59.695	1.780	98.665	 H	1	SAM1	0.000	
35	 HE3	59.392	3.196	97.630	 H	1	SAM1	0.000	
36	  H1	54.886	-2.185	98.119	 H	1	SAM1	0.000	
37	  H2	53.725	-1.107	98.577	 H	1	SAM1	0.000	
38	  H2	52.320	0.521	105.716	 H	1	SAM1	0.000	
39	  H3	55.250	-0.990	99.195	 H	1	SAM1	0.000	
40	  H8	57.070	0.232	101.164	 H	1	SAM1	0.000	
41	 H1'	53.531	0.634	100.795	 H	1	SAM1	0.000	
42	 H2'	53.862	2.940	102.215	 H	1	SAM1	0.000	
43	 H2'	52.954	4.072	100.448	 H	1	SAM1	0.000	
44	 H3'	56.261	3.353	101.514	 H	1	SAM1	0.000	
45	 H3'	54.986	5.155	101.485	 H	1	SAM1	0.000	
46	 H4'	55.249	3.122	98.642	 H	1	SAM1	0.000	
47	 H61	57.403	-1.317	105.847	 H	1	SAM1	0.000	
48	 H62	56.337	-1.370	107.233	 H	1	SAM1	0.000	
49	H5'1	57.515	3.734	98.913	 H	1	SAM1	0.000	
50	H5'2	57.824	2.320	99.949	 H	1	SAM1	0.000	
@<TRIPOS>BOND
1 1 2 1
2 1 36 1
3 1 37 1
4 1 39 1
5 2 3 1
6 2 5 1
7 2 28 1
8 3 4 ar
9 3 17 ar
10 5 6 1
11 5 29 1
12 5 30 1
13 6 7 1
14 6 31 1
15 6 32 1
16 7 8 1
17 7 9 1
18 8 33 1
19 8 34 1
20 8 35 1
21 9 10 1
22 9 49 1
23 9 50 1
24 10 11 1
25 10 12 1
26 10 46 1
27 11 16 1
28 12 13 1
29 12 14 1
30 12 44 1
31 13 45 1
32 14 15 1
33 14 16 1
34 14 42 1
35 15 43 1
36 16 27 1
37 16 41 1
38 18 19 ar
39 18 23 ar
40 19 20 ar
41 19 38 1
42 20 21 ar
43 21 22 ar
44 21 27 ar
45 22 23 ar
46 22 25 ar
47 23 24 1
48 24 47 1
49 24 48 1
50 25 26 ar
51 26 27 ar
52 26 40 1
@<TRIPOS>SUBSTRUCTURE
1	SAM1	1	GROUP	1 B	SAM
