@<TRIPOS>MOLECULE
5JIN.B
51 53 1 0 0 
SMALL
USER_CHARGES


@<TRIPOS>ATOM
  1 N       54.7080    -1.2250    98.3760 N.4   1 SAM  -0.8530 
  2 H1      54.8856    -2.1855    98.1192 H     1 SAM   0.4500 
  3 H2      53.7254    -1.1065    98.5773 H     1 SAM   0.4500 
  4 H3      55.2502    -0.9897    99.1950 H     1 SAM   0.4500 
  5 CA      55.0900    -0.3430    97.2660 C.3   1 SAM   0.3170 
  6 HA      54.8812     0.6771    97.5884 H     1 SAM   0.0800 
  7 C       54.3030    -0.6180    95.9990 C.2   1 SAM   0.9060 
  8 O       54.6980     0.0250    94.9840 O.co2 1 SAM  -0.9000 
  9 CB      56.5900    -0.5580    96.9380 C.3   1 SAM  -0.1600 
 10 HB1     56.7937    -0.1354    95.9541 H     1 SAM   0.0800 
 11 HB2     56.7913    -1.6291    96.9221 H     1 SAM   0.0800 
 12 CG      57.5100     0.0860    97.9340 C.3   1 SAM  -0.1525 
 13 HG1     58.5094    -0.3296    97.8055 H     1 SAM   0.0800 
 14 HG2     57.1496    -0.1383    98.9379 H     1 SAM   0.0800 
 15 SD      57.5950     1.7800    97.7500 S.3   1 SAM   0.9775 
 16 CE      59.2440     2.1210    97.7330 C.3   1 SAM  -0.2325 
 17 HE1     59.7126     1.6074    96.8935 H     1 SAM   0.0800 
 18 HE2     59.6951     1.7804    98.6650 H     1 SAM   0.0800 
 19 HE3     59.3917     3.1960    97.6295 H     1 SAM   0.0800 
 20 C5'     57.2380     2.6990    99.1110 C.3   1 SAM  -0.1525 
 21 H5'1    57.5149     3.7344    98.9128 H     1 SAM   0.0800 
 22 H5'2    57.8237     2.3203    99.9486 H     1 SAM   0.0800 
 23 C4'     55.7350     2.6550    99.4990 C.3   1 SAM   0.2000 
 24 H4'     55.2492     3.1218    98.6421 H     1 SAM   0.0800 
 25 O4'     55.2300     1.3060    99.7210 O.3   1 SAM  -0.5600 
 26 C3'     55.4400     3.3960   100.7980 C.3   1 SAM   0.2000 
 27 H3'     56.2605     3.3531   101.5143 H     1 SAM   0.0800 
 28 O3'     55.2160     4.7910   100.6270 O.3   1 SAM  -0.6800 
 29 H3'     54.9858     5.1553   101.4848 H     1 SAM   0.4000 
 30 C2'     54.1490     2.7140   101.1880 C.3   1 SAM   0.2000 
 31 H2'     53.8620     2.9398   102.2150 H     1 SAM   0.0800 
 32 O2'     53.0780     3.1280   100.3240 O.3   1 SAM  -0.6800 
 33 H2'     52.9537     4.0719   100.4476 H     1 SAM   0.4000 
 34 C1'     54.4230     1.2480   100.9190 C.3   1 SAM   0.5691 
 35 H1'     53.5308     0.6342   100.7952 H     1 SAM   0.0800 
 36 OXT     53.3260    -1.4380    96.0090 O.co2 1 SAM  -0.9000 
 37 N1      54.2450    -0.2690   106.0390 N.2   1 SAM  -0.6610 
 38 C2      53.2810     0.3080   105.2720 C.2   1 SAM   0.6010 
 39 H2      52.3199     0.5208   105.7163 H     1 SAM   0.0600 
 40 N3      53.4850     0.6270   103.9630 N.2   1 SAM  -0.6610 
 41 C4      54.6680     0.4090   103.3160 C.2   1 SAM   0.5000 
 42 C5      55.7730    -0.2000   104.0890 C.2   1 SAM   0.4500 
 43 C6      55.5080    -0.5500   105.5230 C.2   1 SAM   0.6110 
 44 N6      56.5030    -1.1300   106.2660 N.2   1 SAM  -0.2000 
 45 H62     56.3366    -1.3703   107.2328 H     1 SAM   0.4000 
 46 H61     57.4026    -1.3171   105.8467 H     1 SAM   0.4000 
 47 N7      56.8220    -0.2970   103.2430 N.2   1 SAM  -0.6960 
 48 C8      56.4370     0.1920   102.0380 C.3   1 SAM   0.4551 
 49 H81     56.5270    -0.5949   101.2891 H     1 SAM   0.0800 
 50 H82     57.0852     1.0259   101.7685 H     1 SAM   0.0800 
 51 N9      55.1480     0.6250   102.0750 N.pl3 1 SAM  -0.7882 
@<TRIPOS>BOND
  1   1   2  1   
  2   1   3  1   
  3   1   4  1   
  4   1   5  1   
  5   5   6  1   
  6   5   7  1   
  7   5   9  1   
  8   7   8  ar  
  9   7  36  ar  
 10   9  10  1   
 11   9  11  1   
 12   9  12  1   
 13  12  13  1   
 14  12  14  1   
 15  12  15  1   
 16  15  16  1   
 17  15  20  1   
 18  16  17  1   
 19  16  18  1   
 20  16  19  1   
 21  20  21  1   
 22  20  22  1   
 23  20  23  1   
 24  23  24  1   
 25  23  25  1   
 26  23  26  1   
 27  25  34  1   
 28  26  27  1   
 29  26  28  1   
 30  26  30  1   
 31  28  29  1   
 32  30  31  1   
 33  30  32  1   
 34  30  34  1   
 35  32  33  1   
 36  34  35  1   
 37  34  51  1   
 38  37  38  2   
 39  37  43  1   
 40  38  39  1   
 41  38  40  1   
 42  40  41  2   
 43  41  42  1   
 44  41  51  1   
 45  42  43  1   
 46  42  47  2   
 47  43  44  2   
 48  44  45  1   
 49  44  46  1   
 50  47  48  1   
 51  48  49  1   
 52  48  50  1   
 53  48  51  1   
@<TRIPOS>SUBSTRUCTURE
  1 SAM  25 GROUP 4 B **** 0

# MOE 2022.02 (io_trps.svl 2020.11)
