# created with PyMOL 2.4.0
@<TRIPOS>MOLECULE
temp
50 52 1                 
SMALL
USER_CHARGES
@<TRIPOS>ATOM
1	   N	98.356	-2.042	61.392	N.4	1	SAM1	0.000	
2	  CA	98.082	-1.129	62.547	C.3	1	SAM1	0.000	
3	   C	98.888	-1.535	63.780	C.2	1	SAM1	0.000	
4	   O	98.499	-1.063	64.890	O.co2	1	SAM1	0.000	
5	  CB	96.571	-1.132	62.836	C.3	1	SAM1	0.000	
6	  CG	95.722	-0.168	61.967	C.3	1	SAM1	0.000	
7	  SD	95.838	1.527	62.322	S.3	1	SAM1	0.000	
8	  CE	94.283	2.141	62.487	C.3	1	SAM1	0.000	
9	 C5'	96.261	2.409	60.926	C.3	1	SAM1	0.000	
10	 C4'	97.746	2.244	60.561	C.3	1	SAM1	0.000	
11	 O4'	98.133	0.885	60.195	O.3	1	SAM1	0.000	
12	 C3'	98.115	3.083	59.357	C.3	1	SAM1	0.000	
13	 O3'	98.375	4.399	59.798	O.3	1	SAM1	0.000	
14	 C2'	99.353	2.372	58.896	C.3	1	SAM1	0.000	
15	 O2'	100.390	2.565	59.889	O.3	1	SAM1	0.000	
16	 C1'	98.904	0.928	58.953	C.3	1	SAM1	0.000	
17	 OXT	99.899	-2.322	63.650	O.co2	1	SAM1	0.000	
18	  N1	98.916	-0.192	53.836	N.2	1	SAM1	0.000	
19	  C2	99.926	0.234	54.622	C.2	1	SAM1	0.000	
20	  N3	99.762	0.466	55.935	N.2	1	SAM1	0.000	
21	  C4	98.532	0.338	56.519	C.2	1	SAM1	0.000	
22	  C5	97.374	-0.068	55.714	C.2	1	SAM1	0.000	
23	  C6	97.630	-0.375	54.293	C.2	1	SAM1	0.000	
24	  N6	96.595	-0.718	53.486	N.pl3	1	SAM1	0.000	
25	  N7	96.313	-0.127	56.549	N.2	1	SAM1	0.000	
26	  C8	96.766	0.231	57.784	C.2	1	SAM1	0.000	
27	  N9	98.081	0.509	57.766	N.2	1	SAM1	0.000	
28	  HA	98.395	-0.117	62.289	 H	1	SAM1	0.000	
29	 HB1	96.429	-0.856	63.881	 H	1	SAM1	0.000	
30	 HB2	96.200	-2.144	62.674	 H	1	SAM1	0.000	
31	 HG1	94.677	-0.457	62.082	 H	1	SAM1	0.000	
32	 HG2	96.026	-0.308	60.930	 H	1	SAM1	0.000	
33	 HE1	93.806	1.692	63.358	 H	1	SAM1	0.000	
34	 HE2	93.703	1.907	61.594	 H	1	SAM1	0.000	
35	 HE3	94.331	3.222	62.616	 H	1	SAM1	0.000	
36	  H1	98.066	-2.980	61.629	 H	1	SAM1	0.000	
37	  H2	99.345	-2.037	61.186	 H	1	SAM1	0.000	
38	  H2	100.899	0.394	54.181	 H	1	SAM1	0.000	
39	  H3	97.842	-1.725	60.583	 H	1	SAM1	0.000	
40	  H8	96.146	0.285	58.667	 H	1	SAM1	0.000	
41	 H1'	99.742	0.232	58.929	 H	1	SAM1	0.000	
42	 H2'	99.734	2.698	57.928	 H	1	SAM1	0.000	
43	 H2'	100.606	3.500	59.905	 H	1	SAM1	0.000	
44	 H3'	97.365	3.178	58.572	 H	1	SAM1	0.000	
45	 H3'	98.700	4.899	59.045	 H	1	SAM1	0.000	
46	 H4'	98.260	2.547	61.473	 H	1	SAM1	0.000	
47	 H61	95.657	-0.762	53.859	 H	1	SAM1	0.000	
48	 H62	96.762	-0.929	52.513	 H	1	SAM1	0.000	
49	H5'1	96.059	3.465	61.104	 H	1	SAM1	0.000	
50	H5'2	95.654	2.058	60.092	 H	1	SAM1	0.000	
@<TRIPOS>BOND
1 1 2 1
2 1 36 1
3 1 37 1
4 1 39 1
5 2 3 1
6 2 5 1
7 2 28 1
8 3 4 ar
9 3 17 ar
10 5 6 1
11 5 29 1
12 5 30 1
13 6 7 1
14 6 31 1
15 6 32 1
16 7 8 1
17 7 9 1
18 8 33 1
19 8 34 1
20 8 35 1
21 9 10 1
22 9 49 1
23 9 50 1
24 10 11 1
25 10 12 1
26 10 46 1
27 11 16 1
28 12 13 1
29 12 14 1
30 12 44 1
31 13 45 1
32 14 15 1
33 14 16 1
34 14 42 1
35 15 43 1
36 16 27 1
37 16 41 1
38 18 19 ar
39 18 23 ar
40 19 20 ar
41 19 38 1
42 20 21 ar
43 21 22 ar
44 21 27 ar
45 22 23 ar
46 22 25 ar
47 23 24 1
48 24 47 1
49 24 48 1
50 25 26 ar
51 26 27 ar
52 26 40 1
@<TRIPOS>SUBSTRUCTURE
1	SAM1	1	GROUP	1 A	SAM
