# created with PyMOL 2.5.0
@<TRIPOS>MOLECULE
5JIN
27 29 1                 
SMALL
USER_CHARGES
@<TRIPOS>ATOM
1	   N	98.356	-2.042	61.392	N.3	1	SAM1205	0.000	
2	  CA	98.082	-1.129	62.547	C.3	1	SAM1205	0.000	
3	   C	98.888	-1.535	63.780	C.2	1	SAM1205	0.000	
4	   O	98.499	-1.063	64.890	O.co2	1	SAM1205	0.000	
5	  CB	96.571	-1.132	62.836	C.3	1	SAM1205	0.000	
6	  CG	95.722	-0.168	61.967	C.3	1	SAM1205	0.000	
7	  SD	95.838	1.527	62.322	S.3	1	SAM1205	0.000	
8	  CE	94.283	2.141	62.487	C.3	1	SAM1205	0.000	
9	 C5'	96.261	2.409	60.926	C.3	1	SAM1205	0.000	
10	 C4'	97.746	2.244	60.561	C.3	1	SAM1205	0.000	
11	 O4'	98.133	0.885	60.195	O.3	1	SAM1205	0.000	
12	 C3'	98.115	3.083	59.357	C.3	1	SAM1205	0.000	
13	 O3'	98.375	4.399	59.798	O.3	1	SAM1205	0.000	
14	 C2'	99.353	2.372	58.896	C.3	1	SAM1205	0.000	
15	 O2'	100.390	2.565	59.889	O.3	1	SAM1205	0.000	
16	 C1'	98.904	0.928	58.953	C.3	1	SAM1205	0.000	
17	 OXT	99.899	-2.322	63.650	O.co2	1	SAM1205	0.000	
18	  N1	98.916	-0.192	53.836	N.2	1	SAM1205	0.000	
19	  C2	99.926	0.234	54.622	C.2	1	SAM1205	0.000	
20	  N3	99.762	0.466	55.935	N.2	1	SAM1205	0.000	
21	  C4	98.532	0.338	56.519	C.2	1	SAM1205	0.000	
22	  C5	97.374	-0.068	55.714	C.2	1	SAM1205	0.000	
23	  C6	97.630	-0.375	54.293	C.2	1	SAM1205	0.000	
24	  N6	96.595	-0.718	53.486	N.pl3	1	SAM1205	0.000	
25	  N7	96.313	-0.127	56.549	N.2	1	SAM1205	0.000	
26	  C8	96.766	0.231	57.784	C.2	1	SAM1205	0.000	
27	  N9	98.081	0.509	57.766	N.2	1	SAM1205	0.000	
@<TRIPOS>BOND
1 1 2 1
2 2 3 1
3 2 5 1
4 3 4 ar
5 3 17 ar
6 5 6 1
7 6 7 1
8 7 8 1
9 7 9 1
10 9 10 1
11 10 11 1
12 10 12 1
13 11 16 1
14 12 13 1
15 12 14 1
16 14 15 1
17 14 16 1
18 16 27 1
19 18 19 ar
20 18 23 ar
21 19 20 ar
22 20 21 ar
23 21 22 ar
24 21 27 ar
25 22 23 ar
26 22 25 ar
27 23 24 1
28 25 26 ar
29 26 27 ar
@<TRIPOS>SUBSTRUCTURE
1	SAM1205	1	GROUP	1 A	SAM
