# created with PyMOL 2.5.0
@<TRIPOS>MOLECULE
1VPT
27 29 1                 
SMALL
USER_CHARGES
@<TRIPOS>ATOM
1	   N	-4.645	12.855	23.965	N.3	1	SAM400	0.000	
2	  CA	-4.748	11.817	24.989	C.3	1	SAM400	0.000	
3	   C	-5.105	12.418	26.348	C.3	1	SAM400	0.000	
4	   O	-5.759	13.488	26.334	O.3	1	SAM400	0.000	
5	  CB	-3.448	10.999	25.076	C.3	1	SAM400	0.000	
6	  CG	-3.098	10.295	23.765	C.3	1	SAM400	0.000	
7	  SD	-1.735	9.087	23.786	S.3	1	SAM400	0.000	
8	  CE	-0.349	10.135	23.775	C.3	1	SAM400	0.000	
9	 C5'	-1.778	8.584	22.079	C.3	1	SAM400	0.000	
10	 C4'	-2.997	7.832	21.791	C.3	1	SAM400	0.000	
11	 O4'	-3.178	7.761	20.384	O.3	1	SAM400	0.000	
12	 C3'	-3.223	6.454	22.486	C.3	1	SAM400	0.000	
13	 O3'	-4.428	6.421	23.330	O.3	1	SAM400	0.000	
14	 C2'	-3.468	5.574	21.243	C.3	1	SAM400	0.000	
15	 O2'	-4.398	4.482	21.429	O.3	1	SAM400	0.000	
16	 C1'	-3.969	6.589	20.231	C.3	1	SAM400	0.000	
17	 OXT	-5.044	11.666	27.358	O.3	1	SAM400	0.000	
18	  N1	-6.633	6.006	16.002	N.2	1	SAM400	0.000	
19	  C2	-6.950	6.532	17.175	C.2	1	SAM400	0.000	
20	  N3	-6.161	6.628	18.229	N.2	1	SAM400	0.000	
21	  C4	-4.933	6.112	18.010	C.2	1	SAM400	0.000	
22	  C5	-4.415	5.680	16.816	C.2	1	SAM400	0.000	
23	  C6	-5.336	5.660	15.734	C.2	1	SAM400	0.000	
24	  N6	-5.029	5.267	14.492	N.pl3	1	SAM400	0.000	
25	  N7	-3.045	5.328	16.950	N.2	1	SAM400	0.000	
26	  C8	-2.806	5.519	18.201	C.2	1	SAM400	0.000	
27	  N9	-3.892	6.115	18.877	N.2	1	SAM400	0.000	
@<TRIPOS>BOND
1 1 2 1
2 2 3 1
3 2 5 1
4 3 4 1
5 3 17 1
6 5 6 1
7 6 7 1
8 7 8 1
9 7 9 1
10 9 10 1
11 10 11 1
12 10 12 1
13 11 16 1
14 12 13 1
15 12 14 1
16 14 15 1
17 14 16 1
18 16 27 1
19 18 19 ar
20 18 23 ar
21 19 20 ar
22 20 21 ar
23 21 22 ar
24 21 27 ar
25 22 23 ar
26 22 25 ar
27 23 24 1
28 25 26 ar
29 26 27 ar
@<TRIPOS>SUBSTRUCTURE
1	SAM400	1	GROUP	1 A	SAM
