@<TRIPOS>MOLECULE
1VPT.A
54 56 1 0 0 
SMALL
USER_CHARGES


@<TRIPOS>ATOM
  1 N       -4.6450    12.8550    23.9650 N.4   1 SAM  -0.8530 
  2 H3      -4.4407    12.4285    23.0726 H     1 SAM   0.4500 
  3 H1      -3.9040    13.4964    24.2091 H     1 SAM   0.4500 
  4 H2      -5.5192    13.3574    23.9058 H     1 SAM   0.4500 
  5 CA      -4.7480    11.8170    24.9890 C.3   1 SAM   0.4230 
  6 HA      -5.5533    11.1419    24.6994 H     1 SAM   0.0800 
  7 C       -5.1050    12.4180    26.3480 C.3   1 SAM   0.4800 
  8 H       -4.2141    12.9260    26.7173 H     1 SAM   0.0800 
  9 O       -5.7590    13.4880    26.3340 O.3   1 SAM  -0.6800 
 10 H       -5.7772    13.8288    27.2313 H     1 SAM   0.4000 
 11 CB      -3.4480    10.9990    25.0760 C.3   1 SAM  -0.1600 
 12 HB1     -3.5629    10.2455    25.8552 H     1 SAM   0.0800 
 13 HB2     -2.6312    11.6713    25.3383 H     1 SAM   0.0800 
 14 CG      -3.0980    10.2950    23.7650 C.3   1 SAM  -0.1525 
 15 HG1     -2.8368    11.0671    23.0413 H     1 SAM   0.0800 
 16 HG2     -3.9923     9.7700    23.4293 H     1 SAM   0.0800 
 17 SD      -1.7350     9.0870    23.7860 S.3   1 SAM   0.9775 
 18 CE      -0.3490    10.1350    23.7750 C.3   1 SAM  -0.2325 
 19 HE1     -0.1871    10.5338    24.7764 H     1 SAM   0.0800 
 20 HE2     -0.5205    10.9570    23.0800 H     1 SAM   0.0800 
 21 HE3      0.5300     9.5717    23.4617 H     1 SAM   0.0800 
 22 C5'     -1.7780     8.5840    22.0790 C.3   1 SAM  -0.1525 
 23 H5'1    -0.9124     7.9555    21.8696 H     1 SAM   0.0800 
 24 H5'2    -1.7460     9.4697    21.4444 H     1 SAM   0.0800 
 25 C4'     -2.9970     7.8320    21.7910 C.3   1 SAM   0.2000 
 26 H4'     -3.7800     8.4153    22.2756 H     1 SAM   0.0800 
 27 O4'     -3.1780     7.7610    20.3840 O.3   1 SAM  -0.5600 
 28 C3'     -3.2230     6.4540    22.4860 C.3   1 SAM   0.2000 
 29 H3'     -2.4070     6.1693    23.1502 H     1 SAM   0.0800 
 30 O3'     -4.4280     6.4210    23.3300 O.3   1 SAM  -0.6800 
 31 H3'     -4.5228     5.5267    23.6658 H     1 SAM   0.4000 
 32 C2'     -3.4680     5.5740    21.2430 C.3   1 SAM   0.2000 
 33 H2'     -2.5664     5.0380    20.9463 H     1 SAM   0.0800 
 34 O2'     -4.3980     4.4820    21.4290 O.3   1 SAM  -0.6800 
 35 H2'     -5.2391     4.8594    21.6968 H     1 SAM   0.4000 
 36 C1'     -3.9690     6.5890    20.2310 C.3   1 SAM   0.5691 
 37 H1'     -5.0245     6.7848    20.4201 H     1 SAM   0.0800 
 38 OXT     -5.0440    11.6660    27.3580 O.3   1 SAM  -0.6800 
 39 HXT     -5.7768    11.0481    27.3046 H     1 SAM   0.4000 
 40 N1      -6.6330     6.0060    16.0020 N.2   1 SAM  -0.6610 
 41 C2      -6.9500     6.5320    17.1750 C.2   1 SAM   0.6010 
 42 H2      -7.9522     6.9206    17.2798 H     1 SAM   0.0600 
 43 N3      -6.1610     6.6280    18.2290 N.2   1 SAM  -0.6610 
 44 C4      -4.9330     6.1120    18.0100 C.2   1 SAM   0.5000 
 45 C5      -4.4150     5.6800    16.8160 C.2   1 SAM   0.4500 
 46 C6      -5.3360     5.6600    15.7340 C.2   1 SAM   0.6110 
 47 N6      -5.0290     5.2670    14.4920 N.2   1 SAM  -0.2000 
 48 H62     -5.7349     5.2784    13.7697 H     1 SAM   0.4000 
 49 H61     -4.0914     4.9591    14.2770 H     1 SAM   0.4000 
 50 N7      -3.0450     5.3280    16.9500 N.2   1 SAM  -0.6960 
 51 C8      -2.8060     5.5190    18.2010 C.3   1 SAM   0.4551 
 52 H81     -1.9369     6.1701    18.2948 H     1 SAM   0.0800 
 53 H82     -2.5911     4.5569    18.6661 H     1 SAM   0.0800 
 54 N9      -3.8920     6.1150    18.8770 N.pl3 1 SAM  -0.7882 
@<TRIPOS>BOND
  1   1   2  1   
  2   1   3  1   
  3   1   4  1   
  4   1   5  1   
  5   5   6  1   
  6   5   7  1   
  7   5  11  1   
  8   7   8  1   
  9   7   9  1   
 10   7  38  1   
 11   9  10  1   
 12  11  12  1   
 13  11  13  1   
 14  11  14  1   
 15  14  15  1   
 16  14  16  1   
 17  14  17  1   
 18  17  18  1   
 19  17  22  1   
 20  18  19  1   
 21  18  20  1   
 22  18  21  1   
 23  22  23  1   
 24  22  24  1   
 25  22  25  1   
 26  25  26  1   
 27  25  27  1   
 28  25  28  1   
 29  27  36  1   
 30  28  29  1   
 31  28  30  1   
 32  28  32  1   
 33  30  31  1   
 34  32  33  1   
 35  32  34  1   
 36  32  36  1   
 37  34  35  1   
 38  36  37  1   
 39  36  54  1   
 40  38  39  1   
 41  40  41  2   
 42  40  46  1   
 43  41  42  1   
 44  41  43  1   
 45  43  44  2   
 46  44  45  1   
 47  44  54  1   
 48  45  46  1   
 49  45  50  2   
 50  46  47  2   
 51  47  48  1   
 52  47  49  1   
 53  50  51  1   
 54  51  52  1   
 55  51  53  1   
 56  51  54  1   
@<TRIPOS>SUBSTRUCTURE
  1 SAM  27 GROUP 4 A **** 0

# MOE 2022.02 (io_trps.svl 2020.11)
