# created with PyMOL 2.4.0
@<TRIPOS>MOLECULE
temp
50 52 1                 
SMALL
USER_CHARGES
@<TRIPOS>ATOM
1	   N	-4.645	12.855	23.965	N.4	1	SAM1	0.000	
2	  CA	-4.748	11.817	24.989	C.3	1	SAM1	0.000	
3	   C	-5.105	12.418	26.348	C.2	1	SAM1	0.000	
4	   O	-5.759	13.488	26.334	O.co2	1	SAM1	0.000	
5	  CB	-3.448	10.999	25.076	C.3	1	SAM1	0.000	
6	  CG	-3.098	10.295	23.765	C.3	1	SAM1	0.000	
7	  SD	-1.735	9.087	23.786	S.3	1	SAM1	0.000	
8	  CE	-0.349	10.135	23.775	C.3	1	SAM1	0.000	
9	 C5'	-1.778	8.584	22.079	C.3	1	SAM1	0.000	
10	 C4'	-2.997	7.832	21.791	C.3	1	SAM1	0.000	
11	 O4'	-3.178	7.761	20.384	O.3	1	SAM1	0.000	
12	 C3'	-3.223	6.454	22.486	C.3	1	SAM1	0.000	
13	 O3'	-4.428	6.421	23.330	O.3	1	SAM1	0.000	
14	 C2'	-3.468	5.574	21.243	C.3	1	SAM1	0.000	
15	 O2'	-4.398	4.482	21.429	O.3	1	SAM1	0.000	
16	 C1'	-3.969	6.589	20.231	C.3	1	SAM1	0.000	
17	 OXT	-5.044	11.666	27.358	O.co2	1	SAM1	0.000	
18	  N1	-6.633	6.006	16.002	N.2	1	SAM1	0.000	
19	  C2	-6.950	6.532	17.175	C.2	1	SAM1	0.000	
20	  N3	-6.161	6.628	18.229	N.2	1	SAM1	0.000	
21	  C4	-4.933	6.112	18.010	C.2	1	SAM1	0.000	
22	  C5	-4.415	5.680	16.816	C.2	1	SAM1	0.000	
23	  C6	-5.336	5.660	15.734	C.2	1	SAM1	0.000	
24	  N6	-5.029	5.267	14.492	N.pl3	1	SAM1	0.000	
25	  N7	-3.045	5.328	16.950	N.2	1	SAM1	0.000	
26	  C8	-2.806	5.519	18.201	C.2	1	SAM1	0.000	
27	  N9	-3.892	6.115	18.877	N.2	1	SAM1	0.000	
28	  HA	-5.553	11.142	24.699	 H	1	SAM1	0.000	
29	 HB1	-3.563	10.245	25.855	 H	1	SAM1	0.000	
30	 HB2	-2.631	11.671	25.338	 H	1	SAM1	0.000	
31	 HG1	-2.837	11.067	23.041	 H	1	SAM1	0.000	
32	 HG2	-3.992	9.770	23.429	 H	1	SAM1	0.000	
33	 HE1	-0.187	10.534	24.776	 H	1	SAM1	0.000	
34	 HE2	-0.521	10.957	23.080	 H	1	SAM1	0.000	
35	 HE3	0.530	9.572	23.462	 H	1	SAM1	0.000	
36	  H1	-3.904	13.496	24.209	 H	1	SAM1	0.000	
37	  H2	-5.519	13.357	23.906	 H	1	SAM1	0.000	
38	  H2	-7.952	6.921	17.280	 H	1	SAM1	0.000	
39	  H3	-4.441	12.429	23.073	 H	1	SAM1	0.000	
40	  H8	-1.876	5.252	18.681	 H	1	SAM1	0.000	
41	 H1'	-5.024	6.785	20.420	 H	1	SAM1	0.000	
42	 H2'	-2.566	5.038	20.946	 H	1	SAM1	0.000	
43	 H2'	-4.041	3.909	22.111	 H	1	SAM1	0.000	
44	 H3'	-2.407	6.169	23.150	 H	1	SAM1	0.000	
45	 H3'	-4.523	5.527	23.666	 H	1	SAM1	0.000	
46	 H4'	-3.780	8.415	22.276	 H	1	SAM1	0.000	
47	 H61	-4.091	4.959	14.277	 H	1	SAM1	0.000	
48	 H62	-5.735	5.278	13.770	 H	1	SAM1	0.000	
49	H5'1	-0.912	7.956	21.870	 H	1	SAM1	0.000	
50	H5'2	-1.746	9.470	21.444	 H	1	SAM1	0.000	
@<TRIPOS>BOND
1 1 2 1
2 1 36 1
3 1 37 1
4 1 39 1
5 2 3 1
6 2 5 1
7 2 28 1
8 3 4 1
9 3 17 2
10 5 6 1
11 5 29 1
12 5 30 1
13 6 7 1
14 6 31 1
15 6 32 1
16 7 8 1
17 7 9 1
18 8 33 1
19 8 34 1
20 8 35 1
21 9 10 1
22 9 49 1
23 9 50 1
24 10 11 1
25 10 12 1
26 10 46 1
27 11 16 1
28 12 13 1
29 12 14 1
30 12 44 1
31 13 45 1
32 14 15 1
33 14 16 1
34 14 42 1
35 15 43 1
36 16 27 1
37 16 41 1
38 18 19 ar
39 18 23 ar
40 19 20 ar
41 19 38 1
42 20 21 ar
43 21 22 ar
44 21 27 ar
45 22 23 ar
46 22 25 ar
47 23 24 1
48 24 47 1
49 24 48 1
50 25 26 ar
51 26 27 ar
52 26 40 1
@<TRIPOS>SUBSTRUCTURE
1	SAM1	1	GROUP	1 A	SAM
