# created with PyMOL 2.4.0
@<TRIPOS>MOLECULE
temp
50 52 1                 
SMALL
USER_CHARGES
@<TRIPOS>ATOM
1	   N	19.316	26.015	6.642	N.4	1	SAM1	0.000	
2	  CA	19.971	25.264	7.634	C.3	1	SAM1	0.000	
3	   C	19.719	23.712	7.325	C.2	1	SAM1	0.000	
4	   O	20.732	22.980	7.286	O.co2	1	SAM1	0.000	
5	  CB	19.449	25.714	9.070	C.3	1	SAM1	0.000	
6	  CG	19.633	27.220	9.219	C.3	1	SAM1	0.000	
7	  SD	19.272	27.878	10.867	S.3	1	SAM1	0.000	
8	  CE	17.491	27.721	10.897	C.3	1	SAM1	0.000	
9	 C5'	19.510	29.689	10.636	C.3	1	SAM1	0.000	
10	 C4'	20.945	30.004	10.271	C.3	1	SAM1	0.000	
11	 O4'	21.030	31.324	9.692	O.3	1	SAM1	0.000	
12	 C3'	21.928	29.978	11.454	C.3	1	SAM1	0.000	
13	 O3'	23.077	29.179	11.197	O.3	1	SAM1	0.000	
14	 C2'	22.317	31.461	11.625	C.3	1	SAM1	0.000	
15	 O2'	23.659	31.620	12.098	O.3	1	SAM1	0.000	
16	 C1'	22.191	31.957	10.194	C.3	1	SAM1	0.000	
17	 OXT	18.542	23.334	7.112	O.co2	1	SAM1	0.000	
18	  N1	23.773	36.196	7.716	N.2	1	SAM1	0.000	
19	  C2	24.174	34.919	7.646	C.2	1	SAM1	0.000	
20	  N3	23.716	33.868	8.334	N.2	1	SAM1	0.000	
21	  C4	22.735	34.212	9.175	C.2	1	SAM1	0.000	
22	  C5	22.221	35.484	9.360	C.2	1	SAM1	0.000	
23	  C6	22.787	36.520	8.596	C.2	1	SAM1	0.000	
24	  N6	22.445	37.799	8.725	N.pl3	1	SAM1	0.000	
25	  N7	21.211	35.477	10.319	N.2	1	SAM1	0.000	
26	  C8	21.151	34.215	10.690	C.2	1	SAM1	0.000	
27	  N9	22.040	33.406	10.048	N.2	1	SAM1	0.000	
28	  HA	21.047	25.436	7.630	 H	1	SAM1	0.000	
29	 HB1	20.019	25.198	9.843	 H	1	SAM1	0.000	
30	 HB2	18.393	25.464	9.169	 H	1	SAM1	0.000	
31	 HG1	18.972	27.713	8.506	 H	1	SAM1	0.000	
32	 HG2	20.669	27.459	8.979	 H	1	SAM1	0.000	
33	 HE1	17.221	26.674	11.031	 H	1	SAM1	0.000	
34	 HE2	17.078	28.085	9.956	 H	1	SAM1	0.000	
35	 HE3	17.088	28.309	11.722	 H	1	SAM1	0.000	
36	  H1	18.324	25.828	6.678	 H	1	SAM1	0.000	
37	  H2	19.674	25.757	5.733	 H	1	SAM1	0.000	
38	  H2	24.969	34.713	6.944	 H	1	SAM1	0.000	
39	  H3	19.479	26.999	6.802	 H	1	SAM1	0.000	
40	  H8	20.459	33.853	11.436	 H	1	SAM1	0.000	
41	 H1'	23.112	31.721	9.661	 H	1	SAM1	0.000	
42	 H2'	21.707	31.992	12.356	 H	1	SAM1	0.000	
43	 H2'	23.706	31.230	12.974	 H	1	SAM1	0.000	
44	 H3'	21.481	29.536	12.344	 H	1	SAM1	0.000	
45	 H3'	23.649	29.237	11.966	 H	1	SAM1	0.000	
46	 H4'	21.231	29.216	9.574	 H	1	SAM1	0.000	
47	 H61	21.744	38.069	9.400	 H	1	SAM1	0.000	
48	 H62	22.886	38.500	8.148	 H	1	SAM1	0.000	
49	H5'1	19.257	30.203	11.563	 H	1	SAM1	0.000	
50	H5'2	18.854	30.036	9.837	 H	1	SAM1	0.000	
@<TRIPOS>BOND
1 1 2 1
2 1 36 1
3 1 37 1
4 1 39 1
5 2 3 1
6 2 5 1
7 2 28 1
8 3 4 ar
9 3 17 ar
10 5 6 1
11 5 29 1
12 5 30 1
13 6 7 1
14 6 31 1
15 6 32 1
16 7 8 1
17 7 9 1
18 8 33 1
19 8 34 1
20 8 35 1
21 9 10 1
22 9 49 1
23 9 50 1
24 10 11 1
25 10 12 1
26 10 46 1
27 11 16 1
28 12 13 1
29 12 14 1
30 12 44 1
31 13 45 1
32 14 15 1
33 14 16 1
34 14 42 1
35 15 43 1
36 16 27 1
37 16 41 1
38 18 19 ar
39 18 23 ar
40 19 20 ar
41 19 38 1
42 20 21 ar
43 21 22 ar
44 21 27 ar
45 22 23 ar
46 22 25 ar
47 23 24 1
48 24 47 1
49 24 48 1
50 25 26 ar
51 26 27 ar
52 26 40 1
@<TRIPOS>SUBSTRUCTURE
1	SAM1	1	GROUP	1 A	SAM
