# created with PyMOL 2.5.0
@<TRIPOS>MOLECULE
7SE7
27 29 1                 
SMALL
USER_CHARGES
@<TRIPOS>ATOM
1	   N	19.316	26.015	6.642	N.3	1	SAM401	0.000	
2	  CA	19.971	25.264	7.634	C.3	1	SAM401	0.000	
3	   C	19.719	23.712	7.325	C.2	1	SAM401	0.000	
4	   O	20.732	22.980	7.286	O.co2	1	SAM401	0.000	
5	  CB	19.449	25.714	9.070	C.3	1	SAM401	0.000	
6	  CG	19.633	27.220	9.219	C.3	1	SAM401	0.000	
7	  SD	19.272	27.878	10.867	S.3	1	SAM401	0.000	
8	  CE	17.491	27.721	10.897	C.3	1	SAM401	0.000	
9	 C5'	19.510	29.689	10.636	C.3	1	SAM401	0.000	
10	 C4'	20.945	30.004	10.271	C.3	1	SAM401	0.000	
11	 O4'	21.030	31.324	9.692	O.3	1	SAM401	0.000	
12	 C3'	21.928	29.978	11.454	C.3	1	SAM401	0.000	
13	 O3'	23.077	29.179	11.197	O.3	1	SAM401	0.000	
14	 C2'	22.317	31.461	11.625	C.3	1	SAM401	0.000	
15	 O2'	23.659	31.620	12.098	O.3	1	SAM401	0.000	
16	 C1'	22.191	31.957	10.194	C.3	1	SAM401	0.000	
17	 OXT	18.542	23.334	7.112	O.co2	1	SAM401	0.000	
18	  N1	23.773	36.196	7.716	N.2	1	SAM401	0.000	
19	  C2	24.174	34.919	7.646	C.2	1	SAM401	0.000	
20	  N3	23.716	33.868	8.334	N.2	1	SAM401	0.000	
21	  C4	22.735	34.212	9.175	C.2	1	SAM401	0.000	
22	  C5	22.221	35.484	9.360	C.2	1	SAM401	0.000	
23	  C6	22.787	36.520	8.596	C.2	1	SAM401	0.000	
24	  N6	22.445	37.799	8.725	N.pl3	1	SAM401	0.000	
25	  N7	21.211	35.477	10.319	N.2	1	SAM401	0.000	
26	  C8	21.151	34.215	10.690	C.2	1	SAM401	0.000	
27	  N9	22.040	33.406	10.048	N.2	1	SAM401	0.000	
@<TRIPOS>BOND
1 1 2 1
2 2 3 1
3 2 5 1
4 3 4 ar
5 3 17 ar
6 5 6 1
7 6 7 1
8 7 8 1
9 7 9 1
10 9 10 1
11 10 11 1
12 10 12 1
13 11 16 1
14 12 13 1
15 12 14 1
16 14 15 1
17 14 16 1
18 16 27 1
19 18 19 ar
20 18 23 ar
21 19 20 ar
22 20 21 ar
23 21 22 ar
24 21 27 ar
25 22 23 ar
26 22 25 ar
27 23 24 1
28 25 26 ar
29 26 27 ar
@<TRIPOS>SUBSTRUCTURE
1	SAM401	1	GROUP	1 A	SAM
