@<TRIPOS>MOLECULE
7SE7.A
51 53 1 0 0 
SMALL
USER_CHARGES


@<TRIPOS>ATOM
  1 N       19.3160    26.0150     6.6420 N.4   1 SAM  -0.8530 
  2 H1      18.3241    25.8281     6.6783 H     1 SAM   0.4500 
  3 H2      19.6741    25.7575     5.7334 H     1 SAM   0.4500 
  4 H3      19.4793    26.9988     6.8017 H     1 SAM   0.4500 
  5 CA      19.9710    25.2640     7.6340 C.3   1 SAM   0.3170 
  6 HA      21.0473    25.4360     7.6304 H     1 SAM   0.0800 
  7 C       19.7190    23.7120     7.3250 C.2   1 SAM   0.9060 
  8 O       20.7320    22.9800     7.2860 O.co2 1 SAM  -0.9000 
  9 CB      19.4490    25.7140     9.0700 C.3   1 SAM  -0.1600 
 10 HB1     20.0186    25.1985     9.8433 H     1 SAM   0.0800 
 11 HB2     18.3927    25.4639     9.1691 H     1 SAM   0.0800 
 12 CG      19.6330    27.2200     9.2190 C.3   1 SAM  -0.1525 
 13 HG1     18.9721    27.7132     8.5062 H     1 SAM   0.0800 
 14 HG2     20.6691    27.4590     8.9794 H     1 SAM   0.0800 
 15 SD      19.2720    27.8780    10.8670 S.3   1 SAM   0.9775 
 16 CE      17.4910    27.7210    10.8970 C.3   1 SAM  -0.2325 
 17 HE1     17.2208    26.6736    11.0314 H     1 SAM   0.0800 
 18 HE2     17.0783    28.0849     9.9561 H     1 SAM   0.0800 
 19 HE3     17.0883    28.3088    11.7219 H     1 SAM   0.0800 
 20 C5'     19.5100    29.6890    10.6360 C.3   1 SAM  -0.1525 
 21 H5'1    19.2566    30.2032    11.5631 H     1 SAM   0.0800 
 22 H5'2    18.8544    30.0359     9.8373 H     1 SAM   0.0800 
 23 C4'     20.9450    30.0040    10.2710 C.3   1 SAM   0.2000 
 24 H4'     21.2309    29.2159     9.5744 H     1 SAM   0.0800 
 25 O4'     21.0300    31.3240     9.6920 O.3   1 SAM  -0.5600 
 26 C3'     21.9280    29.9780    11.4540 C.3   1 SAM   0.2000 
 27 H3'     21.4814    29.5356    12.3445 H     1 SAM   0.0800 
 28 O3'     23.0770    29.1790    11.1970 O.3   1 SAM  -0.6800 
 29 H3'     23.6489    29.2372    11.9659 H     1 SAM   0.4000 
 30 C2'     22.3170    31.4610    11.6250 C.3   1 SAM   0.2000 
 31 H2'     21.7071    31.9915    12.3562 H     1 SAM   0.0800 
 32 O2'     23.6590    31.6200    12.0980 O.3   1 SAM  -0.6800 
 33 H2'     24.2394    31.1663    11.4825 H     1 SAM   0.4000 
 34 C1'     22.1910    31.9570    10.1940 C.3   1 SAM   0.5691 
 35 H1'     23.1119    31.7208     9.6608 H     1 SAM   0.0800 
 36 OXT     18.5420    23.3340     7.1120 O.co2 1 SAM  -0.9000 
 37 N1      23.7730    36.1960     7.7160 N.2   1 SAM  -0.6610 
 38 C2      24.1740    34.9190     7.6460 C.2   1 SAM   0.6010 
 39 H2      24.9686    34.7126     6.9442 H     1 SAM   0.0600 
 40 N3      23.7160    33.8680     8.3340 N.2   1 SAM  -0.6610 
 41 C4      22.7350    34.2120     9.1750 C.2   1 SAM   0.5000 
 42 C5      22.2210    35.4840     9.3600 C.2   1 SAM   0.4500 
 43 C6      22.7870    36.5200     8.5960 C.2   1 SAM   0.6110 
 44 N6      22.4450    37.7990     8.7250 N.2   1 SAM  -0.2000 
 45 H62     22.8864    38.5005     8.1478 H     1 SAM   0.4000 
 46 H61     21.7439    38.0687     9.4002 H     1 SAM   0.4000 
 47 N7      21.2110    35.4770    10.3190 N.2   1 SAM  -0.6960 
 48 C8      21.1510    34.2150    10.6900 C.3   1 SAM   0.4551 
 49 H81     20.1451    33.8462    10.4895 H     1 SAM   0.0800 
 50 H82     21.3506    34.1625    11.7603 H     1 SAM   0.0800 
 51 N9      22.0400    33.4060    10.0480 N.pl3 1 SAM  -0.7882 
@<TRIPOS>BOND
  1   1   2  1   
  2   1   3  1   
  3   1   4  1   
  4   1   5  1   
  5   5   6  1   
  6   5   7  1   
  7   5   9  1   
  8   7   8  ar  
  9   7  36  ar  
 10   9  10  1   
 11   9  11  1   
 12   9  12  1   
 13  12  13  1   
 14  12  14  1   
 15  12  15  1   
 16  15  16  1   
 17  15  20  1   
 18  16  17  1   
 19  16  18  1   
 20  16  19  1   
 21  20  21  1   
 22  20  22  1   
 23  20  23  1   
 24  23  24  1   
 25  23  25  1   
 26  23  26  1   
 27  25  34  1   
 28  26  27  1   
 29  26  28  1   
 30  26  30  1   
 31  28  29  1   
 32  30  31  1   
 33  30  32  1   
 34  30  34  1   
 35  32  33  1   
 36  34  35  1   
 37  34  51  1   
 38  37  38  2   
 39  37  43  1   
 40  38  39  1   
 41  38  40  1   
 42  40  41  2   
 43  41  42  1   
 44  41  51  1   
 45  42  43  1   
 46  42  47  2   
 47  43  44  2   
 48  44  45  1   
 49  44  46  1   
 50  47  48  1   
 51  48  49  1   
 52  48  50  1   
 53  48  51  1   
@<TRIPOS>SUBSTRUCTURE
  1 SAM  25 GROUP 4 A **** 0

# MOE 2022.02 (io_trps.svl 2020.11)
