# created with PyMOL 2.4.0
@<TRIPOS>MOLECULE
temp
50 52 1                 
SMALL
USER_CHARGES
@<TRIPOS>ATOM
1	   N	26.239	-4.022	-1.048	N.4	1	SAM1	0.000	
2	  CA	26.128	-5.086	0.034	C.3	1	SAM1	0.000	
3	   C	25.793	-4.435	1.376	C.2	1	SAM1	0.000	
4	   O	26.148	-3.256	1.593	O.co2	1	SAM1	0.000	
5	  CB	27.399	-5.940	0.211	C.3	1	SAM1	0.000	
6	  CG	28.674	-5.137	0.552	C.3	1	SAM1	0.000	
7	  SD	30.133	-6.241	0.684	S.3	1	SAM1	0.000	
8	  CE	31.320	-5.155	1.537	C.3	1	SAM1	0.000	
9	 C5'	30.853	-6.030	-0.961	C.3	1	SAM1	0.000	
10	 C4'	30.316	-7.022	-1.962	C.3	1	SAM1	0.000	
11	 O4'	30.964	-6.637	-3.145	O.3	1	SAM1	0.000	
12	 C3'	30.660	-8.490	-1.695	C.3	1	SAM1	0.000	
13	 O3'	29.483	-9.293	-1.786	O.3	1	SAM1	0.000	
14	 C2'	31.687	-8.785	-2.787	C.3	1	SAM1	0.000	
15	 O2'	31.654	-10.120	-3.251	O.3	1	SAM1	0.000	
16	 C1'	31.287	-7.791	-3.865	C.3	1	SAM1	0.000	
17	 OXT	25.186	-5.086	2.270	O.co2	1	SAM1	0.000	
18	  N1	32.912	-8.290	-8.740	N.2	1	SAM1	0.000	
19	  C2	31.717	-8.681	-8.202	C.2	1	SAM1	0.000	
20	  N3	31.447	-8.412	-6.875	N.2	1	SAM1	0.000	
21	  C4	32.380	-7.825	-6.102	C.2	1	SAM1	0.000	
22	  C5	33.602	-7.431	-6.629	C.2	1	SAM1	0.000	
23	  C6	33.884	-7.714	-7.964	C.2	1	SAM1	0.000	
24	  N6	35.040	-7.323	-8.509	N.pl3	1	SAM1	0.000	
25	  N7	34.319	-6.847	-5.642	N.2	1	SAM1	0.000	
26	  C8	33.613	-6.924	-4.473	C.2	1	SAM1	0.000	
27	  N9	32.397	-7.512	-4.771	N.2	1	SAM1	0.000	
28	  HA	25.333	-5.755	-0.296	 H	1	SAM1	0.000	
29	 HB1	27.577	-6.481	-0.719	 H	1	SAM1	0.000	
30	 HB2	27.220	-6.652	1.017	 H	1	SAM1	0.000	
31	 HG1	28.528	-4.624	1.503	 H	1	SAM1	0.000	
32	 HG2	28.853	-4.403	-0.233	 H	1	SAM1	0.000	
33	 HE1	31.080	-5.119	2.600	 H	1	SAM1	0.000	
34	 HE2	31.261	-4.151	1.117	 H	1	SAM1	0.000	
35	 HE3	32.329	-5.545	1.405	 H	1	SAM1	0.000	
36	  H1	26.965	-3.365	-0.800	 H	1	SAM1	0.000	
37	  H2	25.358	-3.535	-1.133	 H	1	SAM1	0.000	
38	  H2	30.989	-9.197	-8.811	 H	1	SAM1	0.000	
39	  H3	26.468	-4.460	-1.929	 H	1	SAM1	0.000	
40	  H8	33.943	-6.589	-3.501	 H	1	SAM1	0.000	
41	 H1'	30.472	-8.164	-4.486	 H	1	SAM1	0.000	
42	 H2'	32.715	-8.681	-2.441	 H	1	SAM1	0.000	
43	 H2'	30.768	-10.292	-3.577	 H	1	SAM1	0.000	
44	 H3'	31.053	-8.702	-0.701	 H	1	SAM1	0.000	
45	 H3'	29.748	-10.210	-1.678	 H	1	SAM1	0.000	
46	 H4'	29.226	-6.994	-1.957	 H	1	SAM1	0.000	
47	 H61	35.716	-6.819	-7.953	 H	1	SAM1	0.000	
48	 H62	35.238	-7.531	-9.477	 H	1	SAM1	0.000	
49	H5'1	31.933	-6.158	-0.888	 H	1	SAM1	0.000	
50	H5'2	30.629	-5.023	-1.313	 H	1	SAM1	0.000	
@<TRIPOS>BOND
1 1 2 1
2 1 36 1
3 1 37 1
4 1 39 1
5 2 3 1
6 2 5 1
7 2 28 1
8 3 4 ar
9 3 17 ar
10 5 6 1
11 5 29 1
12 5 30 1
13 6 7 1
14 6 31 1
15 6 32 1
16 7 8 1
17 7 9 1
18 8 33 1
19 8 34 1
20 8 35 1
21 9 10 1
22 9 49 1
23 9 50 1
24 10 11 1
25 10 12 1
26 10 46 1
27 11 16 1
28 12 13 1
29 12 14 1
30 12 44 1
31 13 45 1
32 14 15 1
33 14 16 1
34 14 42 1
35 15 43 1
36 16 27 1
37 16 41 1
38 18 19 ar
39 18 23 ar
40 19 20 ar
41 19 38 1
42 20 21 ar
43 21 22 ar
44 21 27 ar
45 22 23 ar
46 22 25 ar
47 23 24 1
48 24 47 1
49 24 48 1
50 25 26 ar
51 26 27 ar
52 26 40 1
@<TRIPOS>SUBSTRUCTURE
1	SAM1	1	GROUP	1 A	SAM
