# created with PyMOL 2.5.0
@<TRIPOS>MOLECULE
3O7W
27 29 1                 
SMALL
USER_CHARGES
@<TRIPOS>ATOM
1	   N	26.239	-4.022	-1.048	N.3	1	SAM801	0.000	
2	  CA	26.128	-5.086	0.034	C.3	1	SAM801	0.000	
3	   C	25.793	-4.435	1.376	C.2	1	SAM801	0.000	
4	   O	26.148	-3.256	1.593	O.co2	1	SAM801	0.000	
5	  CB	27.399	-5.940	0.211	C.3	1	SAM801	0.000	
6	  CG	28.674	-5.137	0.552	C.3	1	SAM801	0.000	
7	  SD	30.133	-6.241	0.684	S.3	1	SAM801	0.000	
8	  CE	31.320	-5.155	1.537	C.3	1	SAM801	0.000	
9	 C5'	30.853	-6.030	-0.961	C.3	1	SAM801	0.000	
10	 C4'	30.316	-7.022	-1.962	C.3	1	SAM801	0.000	
11	 O4'	30.964	-6.637	-3.145	O.3	1	SAM801	0.000	
12	 C3'	30.660	-8.490	-1.695	C.3	1	SAM801	0.000	
13	 O3'	29.483	-9.293	-1.786	O.3	1	SAM801	0.000	
14	 C2'	31.687	-8.785	-2.787	C.3	1	SAM801	0.000	
15	 O2'	31.654	-10.120	-3.251	O.3	1	SAM801	0.000	
16	 C1'	31.287	-7.791	-3.865	C.3	1	SAM801	0.000	
17	 OXT	25.186	-5.086	2.270	O.co2	1	SAM801	0.000	
18	  N1	32.912	-8.290	-8.740	N.2	1	SAM801	0.000	
19	  C2	31.717	-8.681	-8.202	C.2	1	SAM801	0.000	
20	  N3	31.447	-8.412	-6.875	N.2	1	SAM801	0.000	
21	  C4	32.380	-7.825	-6.102	C.2	1	SAM801	0.000	
22	  C5	33.602	-7.431	-6.629	C.2	1	SAM801	0.000	
23	  C6	33.884	-7.714	-7.964	C.2	1	SAM801	0.000	
24	  N6	35.040	-7.323	-8.509	N.pl3	1	SAM801	0.000	
25	  N7	34.319	-6.847	-5.642	N.2	1	SAM801	0.000	
26	  C8	33.613	-6.924	-4.473	C.2	1	SAM801	0.000	
27	  N9	32.397	-7.512	-4.771	N.2	1	SAM801	0.000	
@<TRIPOS>BOND
1 1 2 1
2 2 3 1
3 2 5 1
4 3 4 ar
5 3 17 ar
6 5 6 1
7 6 7 1
8 7 8 1
9 7 9 1
10 9 10 1
11 10 11 1
12 10 12 1
13 11 16 1
14 12 13 1
15 12 14 1
16 14 15 1
17 14 16 1
18 16 27 1
19 18 19 ar
20 18 23 ar
21 19 20 ar
22 20 21 ar
23 21 22 ar
24 21 27 ar
25 22 23 ar
26 22 25 ar
27 23 24 1
28 25 26 ar
29 26 27 ar
@<TRIPOS>SUBSTRUCTURE
1	SAM801	1	GROUP	1 A	SAM
