@<TRIPOS>MOLECULE
3O7W.A
51 53 1 0 0 
SMALL
USER_CHARGES


@<TRIPOS>ATOM
  1 N       26.2390    -4.0220    -1.0480 N.4   1 SAM  -0.8530 
  2 H1      26.9648    -3.3647    -0.8005 H     1 SAM   0.4500 
  3 H2      25.3583    -3.5349    -1.1328 H     1 SAM   0.4500 
  4 H3      26.4676    -4.4601    -1.9288 H     1 SAM   0.4500 
  5 CA      26.1280    -5.0860     0.0340 C.3   1 SAM   0.3170 
  6 HA      25.3333    -5.7551    -0.2959 H     1 SAM   0.0800 
  7 C       25.7930    -4.4350     1.3760 C.2   1 SAM   0.9060 
  8 O       26.1480    -3.2560     1.5930 O.co2 1 SAM  -0.9000 
  9 CB      27.3990    -5.9400     0.2110 C.3   1 SAM  -0.1600 
 10 HB1     27.5768    -6.4808    -0.7185 H     1 SAM   0.0800 
 11 HB2     27.2203    -6.6517     1.0170 H     1 SAM   0.0800 
 12 CG      28.6740    -5.1370     0.5520 C.3   1 SAM  -0.1525 
 13 HG1     28.5283    -4.6242     1.5027 H     1 SAM   0.0800 
 14 HG2     28.8530    -4.4026    -0.2333 H     1 SAM   0.0800 
 15 SD      30.1330    -6.2410     0.6840 S.3   1 SAM   0.9775 
 16 CE      31.3200    -5.1550     1.5370 C.3   1 SAM  -0.2325 
 17 HE1     31.0803    -5.1186     2.5997 H     1 SAM   0.0800 
 18 HE2     31.2610    -4.1511     1.1166 H     1 SAM   0.0800 
 19 HE3     32.3292    -5.5453     1.4053 H     1 SAM   0.0800 
 20 C5'     30.8530    -6.0300    -0.9610 C.3   1 SAM  -0.1525 
 21 H5'1    31.9330    -6.1578    -0.8881 H     1 SAM   0.0800 
 22 H5'2    30.6292    -5.0230    -1.3132 H     1 SAM   0.0800 
 23 C4'     30.3160    -7.0220    -1.9620 C.3   1 SAM   0.2000 
 24 H4'     29.2264    -6.9943    -1.9565 H     1 SAM   0.0800 
 25 O4'     30.9640    -6.6370    -3.1450 O.3   1 SAM  -0.5600 
 26 C3'     30.6600    -8.4900    -1.6950 C.3   1 SAM   0.2000 
 27 H3'     31.0532    -8.7020    -0.7008 H     1 SAM   0.0800 
 28 O3'     29.4830    -9.2930    -1.7860 O.3   1 SAM  -0.6800 
 29 H3'     29.7478   -10.2095    -1.6783 H     1 SAM   0.4000 
 30 C2'     31.6870    -8.7850    -2.7870 C.3   1 SAM   0.2000 
 31 H2'     32.7153    -8.6807    -2.4409 H     1 SAM   0.0800 
 32 O2'     31.6540   -10.1200    -3.2510 O.3   1 SAM  -0.6800 
 33 H2'     30.7677   -10.2921    -3.5773 H     1 SAM   0.4000 
 34 C1'     31.2870    -7.7910    -3.8650 C.3   1 SAM   0.5691 
 35 H1'     30.4721    -8.1638    -4.4856 H     1 SAM   0.0800 
 36 OXT     25.1860    -5.0860     2.2700 O.co2 1 SAM  -0.9000 
 37 N1      32.9120    -8.2900    -8.7400 N.2   1 SAM  -0.6610 
 38 C2      31.7170    -8.6810    -8.2020 C.2   1 SAM   0.6010 
 39 H2      30.9894    -9.1967    -8.8111 H     1 SAM   0.0600 
 40 N3      31.4470    -8.4120    -6.8750 N.2   1 SAM  -0.6610 
 41 C4      32.3800    -7.8250    -6.1020 C.2   1 SAM   0.5000 
 42 C5      33.6020    -7.4310    -6.6290 C.2   1 SAM   0.4500 
 43 C6      33.8840    -7.7140    -7.9640 C.2   1 SAM   0.6110 
 44 N6      35.0400    -7.3230    -8.5090 N.2   1 SAM  -0.2000 
 45 H62     35.2379    -7.5315    -9.4772 H     1 SAM   0.4000 
 46 H61     35.7157    -6.8190    -7.9526 H     1 SAM   0.4000 
 47 N7      34.3190    -6.8470    -5.6420 N.2   1 SAM  -0.6960 
 48 C8      33.6130    -6.9240    -4.4730 C.3   1 SAM   0.4551 
 49 H81     33.4556    -5.9257    -4.0646 H     1 SAM   0.0800 
 50 H82     34.1547    -7.5318    -3.7482 H     1 SAM   0.0800 
 51 N9      32.3970    -7.5120    -4.7710 N.pl3 1 SAM  -0.7882 
@<TRIPOS>BOND
  1   1   2  1   
  2   1   3  1   
  3   1   4  1   
  4   1   5  1   
  5   5   6  1   
  6   5   7  1   
  7   5   9  1   
  8   7   8  ar  
  9   7  36  ar  
 10   9  10  1   
 11   9  11  1   
 12   9  12  1   
 13  12  13  1   
 14  12  14  1   
 15  12  15  1   
 16  15  16  1   
 17  15  20  1   
 18  16  17  1   
 19  16  18  1   
 20  16  19  1   
 21  20  21  1   
 22  20  22  1   
 23  20  23  1   
 24  23  24  1   
 25  23  25  1   
 26  23  26  1   
 27  25  34  1   
 28  26  27  1   
 29  26  28  1   
 30  26  30  1   
 31  28  29  1   
 32  30  31  1   
 33  30  32  1   
 34  30  34  1   
 35  32  33  1   
 36  34  35  1   
 37  34  51  1   
 38  37  38  2   
 39  37  43  1   
 40  38  39  1   
 41  38  40  1   
 42  40  41  2   
 43  41  42  1   
 44  41  51  1   
 45  42  43  1   
 46  42  47  2   
 47  43  44  2   
 48  44  45  1   
 49  44  46  1   
 50  47  48  1   
 51  48  49  1   
 52  48  50  1   
 53  48  51  1   
@<TRIPOS>SUBSTRUCTURE
  1 SAM  25 GROUP 4 A **** 0

# MOE 2022.02 (io_trps.svl 2020.11)
