# created with PyMOL 2.5.0
@<TRIPOS>MOLECULE
3DMF
27 29 1                 
SMALL
USER_CHARGES
@<TRIPOS>ATOM
1	   N	24.172	58.736	22.148	N.3	1	SAM388	0.000	
2	  CA	23.715	57.451	21.529	C.3	1	SAM388	0.000	
3	   C	23.339	56.459	22.625	C.2	1	SAM388	0.000	
4	   O	23.713	56.700	23.768	O.co2	1	SAM388	0.000	
5	  CB	24.784	56.800	20.648	C.3	1	SAM388	0.000	
6	  CG	26.099	56.475	21.373	C.3	1	SAM388	0.000	
7	  SD	27.294	55.566	20.346	S.3	1	SAM388	0.000	
8	  CE	28.321	54.775	21.615	C.3	1	SAM388	0.000	
9	 C5'	28.446	56.854	19.796	C.3	1	SAM388	0.000	
10	 C4'	27.902	57.692	18.634	C.3	1	SAM388	0.000	
11	 O4'	28.976	58.545	18.227	O.3	1	SAM388	0.000	
12	 C3'	27.421	56.889	17.410	C.3	1	SAM388	0.000	
13	 O3'	26.101	57.240	17.105	O.3	1	SAM388	0.000	
14	 C2'	28.419	57.331	16.335	C.3	1	SAM388	0.000	
15	 O2'	27.958	57.251	14.983	O.3	1	SAM388	0.000	
16	 C1'	28.787	58.717	16.836	C.3	1	SAM388	0.000	
17	 OXT	22.706	55.453	22.341	O.co2	1	SAM388	0.000	
18	  N1	31.092	63.039	15.363	N.2	1	SAM388	0.000	
19	  C2	29.858	62.888	15.937	C.2	1	SAM388	0.000	
20	  N3	29.379	61.626	16.264	N.2	1	SAM388	0.000	
21	  C4	30.222	60.571	16.008	C.2	1	SAM388	0.000	
22	  C5	31.481	60.706	15.421	C.2	1	SAM388	0.000	
23	  C6	31.921	61.981	15.070	C.2	1	SAM388	0.000	
24	  N6	33.080	62.225	14.450	N.pl3	1	SAM388	0.000	
25	  N7	32.027	59.469	15.299	N.2	1	SAM388	0.000	
26	  C8	31.131	58.560	15.784	C.2	1	SAM388	0.000	
27	  N9	30.020	59.242	16.229	N.2	1	SAM388	0.000	
@<TRIPOS>BOND
1 1 2 1
2 2 3 1
3 2 5 1
4 3 4 ar
5 3 17 ar
6 5 6 1
7 6 7 1
8 7 8 1
9 7 9 1
10 9 10 1
11 10 11 1
12 10 12 1
13 11 16 1
14 12 13 1
15 12 14 1
16 14 15 1
17 14 16 1
18 16 27 1
19 18 19 ar
20 18 23 ar
21 19 20 ar
22 20 21 ar
23 21 22 ar
24 21 27 ar
25 22 23 ar
26 22 25 ar
27 23 24 1
28 25 26 ar
29 26 27 ar
@<TRIPOS>SUBSTRUCTURE
1	SAM388	1	GROUP	1 A	SAM
