@<TRIPOS>MOLECULE
3DMF.A
51 53 1 0 0 
SMALL
USER_CHARGES


@<TRIPOS>ATOM
  1 N       24.1720    58.7360    22.1480 N.4   1 SAM  -0.8530 
  2 H1      24.9683    58.5584    22.7434 H     1 SAM   0.4500 
  3 H2      23.4220    59.1304    22.6976 H     1 SAM   0.4500 
  4 H3      24.4338    59.3858    21.4204 H     1 SAM   0.4500 
  5 CA      23.7150    57.4510    21.5290 C.3   1 SAM   0.3170 
  6 HA      22.8593    57.6971    20.9003 H     1 SAM   0.0800 
  7 C       23.3390    56.4590    22.6250 C.2   1 SAM   0.9060 
  8 O       23.7130    56.7000    23.7680 O.co2 1 SAM  -0.9000 
  9 CB      24.7840    56.8000    20.6480 C.3   1 SAM  -0.1600 
 10 HB1     25.0079    57.4802    19.8263 H     1 SAM   0.0800 
 11 HB2     24.3767    55.8707    20.2497 H     1 SAM   0.0800 
 12 CG      26.0990    56.4750    21.3730 C.3   1 SAM  -0.1525 
 13 HG1     25.8683    55.8699    22.2498 H     1 SAM   0.0800 
 14 HG2     26.5587    57.4116    21.6886 H     1 SAM   0.0800 
 15 SD      27.2940    55.5660    20.3460 S.3   1 SAM   0.9775 
 16 CE      28.3210    54.7750    21.6150 C.3   1 SAM  -0.2325 
 17 HE1     27.7694    53.9505    22.0668 H     1 SAM   0.0800 
 18 HE2     28.5765    55.5053    22.3828 H     1 SAM   0.0800 
 19 HE3     29.2342    54.3939    21.1578 H     1 SAM   0.0800 
 20 C5'     28.4460    56.8540    19.7960 C.3   1 SAM  -0.1525 
 21 H5'1    29.3722    56.3770    19.4756 H     1 SAM   0.0800 
 22 H5'2    28.6508    57.5177    20.6360 H     1 SAM   0.0800 
 23 C4'     27.9020    57.6920    18.6340 C.3   1 SAM   0.2000 
 24 H4'     27.0169    58.2182    18.9916 H     1 SAM   0.0800 
 25 O4'     28.9760    58.5450    18.2270 O.3   1 SAM  -0.5600 
 26 C3'     27.4210    56.8890    17.4100 C.3   1 SAM   0.2000 
 27 H3'     27.4002    55.8067    17.5379 H     1 SAM   0.0800 
 28 O3'     26.1010    57.2400    17.1050 O.3   1 SAM  -0.6800 
 29 H3'     25.8569    56.7791    16.2990 H     1 SAM   0.4000 
 30 C2'     28.4190    57.3310    16.3350 C.3   1 SAM   0.2000 
 31 H2'     29.2762    56.6653    16.2336 H     1 SAM   0.0800 
 32 O2'     27.9580    57.2510    14.9830 O.3   1 SAM  -0.6800 
 33 H2'     27.1777    57.8053    14.9091 H     1 SAM   0.4000 
 34 C1'     28.7870    58.7170    16.8360 C.3   1 SAM   0.5691 
 35 H1'     28.0106    59.4377    16.5794 H     1 SAM   0.0800 
 36 OXT     22.7060    55.4530    22.3410 O.co2 1 SAM  -0.9000 
 37 N1      31.0920    63.0390    15.3630 N.2   1 SAM  -0.6610 
 38 C2      29.8580    62.8880    15.9370 C.2   1 SAM   0.6010 
 39 H2      29.2513    63.7587    16.1374 H     1 SAM   0.0600 
 40 N3      29.3790    61.6260    16.2640 N.2   1 SAM  -0.6610 
 41 C4      30.2220    60.5710    16.0080 C.2   1 SAM   0.5000 
 42 C5      31.4810    60.7060    15.4210 C.2   1 SAM   0.4500 
 43 C6      31.9210    61.9810    15.0700 C.2   1 SAM   0.6110 
 44 N6      33.0800    62.2250    14.4500 N.2   1 SAM  -0.2000 
 45 H62     33.3412    63.1738    14.2228 H     1 SAM   0.4000 
 46 H61     33.6944    61.4605    14.2087 H     1 SAM   0.4000 
 47 N7      32.0270    59.4690    15.2990 N.2   1 SAM  -0.6960 
 48 C8      31.1310    58.5600    15.7840 C.3   1 SAM   0.4551 
 49 H81     31.5783    58.0060    16.6093 H     1 SAM   0.0800 
 50 H82     30.8453    57.8663    14.9933 H     1 SAM   0.0800 
 51 N9      30.0200    59.2420    16.2290 N.pl3 1 SAM  -0.7882 
@<TRIPOS>BOND
  1   1   2  1   
  2   1   3  1   
  3   1   4  1   
  4   1   5  1   
  5   5   6  1   
  6   5   7  1   
  7   5   9  1   
  8   7   8  ar  
  9   7  36  ar  
 10   9  10  1   
 11   9  11  1   
 12   9  12  1   
 13  12  13  1   
 14  12  14  1   
 15  12  15  1   
 16  15  16  1   
 17  15  20  1   
 18  16  17  1   
 19  16  18  1   
 20  16  19  1   
 21  20  21  1   
 22  20  22  1   
 23  20  23  1   
 24  23  24  1   
 25  23  25  1   
 26  23  26  1   
 27  25  34  1   
 28  26  27  1   
 29  26  28  1   
 30  26  30  1   
 31  28  29  1   
 32  30  31  1   
 33  30  32  1   
 34  30  34  1   
 35  32  33  1   
 36  34  35  1   
 37  34  51  1   
 38  37  38  2   
 39  37  43  1   
 40  38  39  1   
 41  38  40  1   
 42  40  41  2   
 43  41  42  1   
 44  41  51  1   
 45  42  43  1   
 46  42  47  2   
 47  43  44  2   
 48  44  45  1   
 49  44  46  1   
 50  47  48  1   
 51  48  49  1   
 52  48  50  1   
 53  48  51  1   
@<TRIPOS>SUBSTRUCTURE
  1 SAM  25 GROUP 4 A **** 0

# MOE 2022.02 (io_trps.svl 2020.11)
