# created with PyMOL 2.5.0
@<TRIPOS>MOLECULE
4DF3
27 29 1                 
SMALL
USER_CHARGES
@<TRIPOS>ATOM
1	   N	23.381	51.348	19.703	N.3	1	SAM301	0.000	
2	  CA	22.453	50.854	20.761	C.3	1	SAM301	0.000	
3	   C	22.266	49.353	20.524	C.2	1	SAM301	0.000	
4	   O	22.306	48.877	19.370	O.co2	1	SAM301	0.000	
5	  CB	21.052	51.556	20.714	C.3	1	SAM301	0.000	
6	  CG	21.338	53.048	20.715	C.3	1	SAM301	0.000	
7	  SD	19.964	54.125	21.211	S.3	1	SAM301	0.000	
8	  CE	19.164	53.986	19.592	C.3	1	SAM301	0.000	
9	 C5'	20.722	55.781	21.025	C.3	1	SAM301	0.000	
10	 C4'	21.521	56.232	22.251	C.3	1	SAM301	0.000	
11	 O4'	22.383	57.334	21.973	O.3	1	SAM301	0.000	
12	 C3'	20.719	56.684	23.463	C.3	1	SAM301	0.000	
13	 O3'	21.144	55.831	24.531	O.3	1	SAM301	0.000	
14	 C2'	20.991	58.186	23.643	C.3	1	SAM301	0.000	
15	 O2'	21.047	58.565	25.000	O.3	1	SAM301	0.000	
16	 C1'	22.362	58.343	22.999	C.3	1	SAM301	0.000	
17	 OXT	22.079	48.610	21.482	O.co2	1	SAM301	0.000	
18	  N1	25.921	61.790	22.060	N.2	1	SAM301	0.000	
19	  C2	26.084	60.627	22.791	C.2	1	SAM301	0.000	
20	  N3	24.967	59.822	22.929	N.2	1	SAM301	0.000	
21	  C4	23.816	60.278	22.366	C.2	1	SAM301	0.000	
22	  C5	23.685	61.478	21.607	C.2	1	SAM301	0.000	
23	  C6	24.787	62.302	21.445	C.2	1	SAM301	0.000	
24	  N6	24.774	63.504	20.749	N.pl3	1	SAM301	0.000	
25	  N7	22.425	61.563	21.157	N.2	1	SAM301	0.000	
26	  C8	21.720	60.445	21.585	C.2	1	SAM301	0.000	
27	  N9	22.591	59.635	22.323	N.2	1	SAM301	0.000	
@<TRIPOS>BOND
1 1 2 1
2 2 3 1
3 2 5 1
4 3 4 ar
5 3 17 ar
6 5 6 1
7 6 7 1
8 7 8 1
9 7 9 1
10 9 10 1
11 10 11 1
12 10 12 1
13 11 16 1
14 12 13 1
15 12 14 1
16 14 15 1
17 14 16 1
18 16 27 1
19 18 19 ar
20 18 23 ar
21 19 20 ar
22 20 21 ar
23 21 22 ar
24 21 27 ar
25 22 23 ar
26 22 25 ar
27 23 24 1
28 25 26 ar
29 26 27 ar
@<TRIPOS>SUBSTRUCTURE
1	SAM301	1	GROUP	1 A	SAM
