# created with PyMOL 2.4.0
@<TRIPOS>MOLECULE
temp
50 52 1                 
SMALL
USER_CHARGES
@<TRIPOS>ATOM
1	   N	23.381	51.348	19.703	N.4	1	SAM1	0.000	
2	  CA	22.453	50.854	20.761	C.3	1	SAM1	0.000	
3	   C	22.266	49.353	20.524	C.2	1	SAM1	0.000	
4	   O	22.306	48.877	19.370	O.co2	1	SAM1	0.000	
5	  CB	21.052	51.556	20.714	C.3	1	SAM1	0.000	
6	  CG	21.338	53.048	20.715	C.3	1	SAM1	0.000	
7	  SD	19.964	54.125	21.211	S.3	1	SAM1	0.000	
8	  CE	19.164	53.986	19.592	C.3	1	SAM1	0.000	
9	 C5'	20.722	55.781	21.025	C.3	1	SAM1	0.000	
10	 C4'	21.521	56.232	22.251	C.3	1	SAM1	0.000	
11	 O4'	22.383	57.334	21.973	O.3	1	SAM1	0.000	
12	 C3'	20.719	56.684	23.463	C.3	1	SAM1	0.000	
13	 O3'	21.144	55.831	24.531	O.3	1	SAM1	0.000	
14	 C2'	20.991	58.186	23.643	C.3	1	SAM1	0.000	
15	 O2'	21.047	58.565	25.000	O.3	1	SAM1	0.000	
16	 C1'	22.362	58.343	22.999	C.3	1	SAM1	0.000	
17	 OXT	22.079	48.610	21.482	O.co2	1	SAM1	0.000	
18	  N1	25.921	61.790	22.060	N.2	1	SAM1	0.000	
19	  C2	26.084	60.627	22.791	C.2	1	SAM1	0.000	
20	  N3	24.967	59.822	22.929	N.2	1	SAM1	0.000	
21	  C4	23.816	60.278	22.366	C.2	1	SAM1	0.000	
22	  C5	23.685	61.478	21.607	C.2	1	SAM1	0.000	
23	  C6	24.787	62.302	21.445	C.2	1	SAM1	0.000	
24	  N6	24.774	63.504	20.749	N.pl3	1	SAM1	0.000	
25	  N7	22.425	61.563	21.157	N.2	1	SAM1	0.000	
26	  C8	21.720	60.445	21.585	C.2	1	SAM1	0.000	
27	  N9	22.591	59.635	22.323	N.2	1	SAM1	0.000	
28	  HA	22.883	51.074	21.738	 H	1	SAM1	0.000	
29	 HB1	20.460	51.282	21.588	 H	1	SAM1	0.000	
30	 HB2	20.515	51.273	19.809	 H	1	SAM1	0.000	
31	 HG1	21.635	53.331	19.705	 H	1	SAM1	0.000	
32	 HG2	22.166	53.228	21.401	 H	1	SAM1	0.000	
33	 HE1	18.647	53.029	19.523	 H	1	SAM1	0.000	
34	 HE2	19.918	54.048	18.808	 H	1	SAM1	0.000	
35	 HE3	18.446	54.797	19.471	 H	1	SAM1	0.000	
36	  H1	22.991	51.148	18.793	 H	1	SAM1	0.000	
37	  H2	24.274	50.885	19.795	 H	1	SAM1	0.000	
38	  H2	27.034	60.361	23.231	 H	1	SAM1	0.000	
39	  H3	23.507	52.345	19.804	 H	1	SAM1	0.000	
40	  H8	20.680	60.237	21.383	 H	1	SAM1	0.000	
41	 H1'	23.122	58.269	23.777	 H	1	SAM1	0.000	
42	 H2'	20.208	58.807	23.209	 H	1	SAM1	0.000	
43	 H2'	20.185	58.391	25.386	 H	1	SAM1	0.000	
44	 H3'	19.635	56.593	23.390	 H	1	SAM1	0.000	
45	 H3'	20.711	56.133	25.333	 H	1	SAM1	0.000	
46	 H4'	22.050	55.309	22.488	 H	1	SAM1	0.000	
47	 H61	23.920	63.829	20.319	 H	1	SAM1	0.000	
48	 H62	25.619	64.052	20.673	 H	1	SAM1	0.000	
49	H5'1	19.927	56.505	20.846	 H	1	SAM1	0.000	
50	H5'2	21.393	55.758	20.166	 H	1	SAM1	0.000	
@<TRIPOS>BOND
1 1 2 1
2 1 36 1
3 1 37 1
4 1 39 1
5 2 3 1
6 2 5 1
7 2 28 1
8 3 4 ar
9 3 17 ar
10 5 6 1
11 5 29 1
12 5 30 1
13 6 7 1
14 6 31 1
15 6 32 1
16 7 8 1
17 7 9 1
18 8 33 1
19 8 34 1
20 8 35 1
21 9 10 1
22 9 49 1
23 9 50 1
24 10 11 1
25 10 12 1
26 10 46 1
27 11 16 1
28 12 13 1
29 12 14 1
30 12 44 1
31 13 45 1
32 14 15 1
33 14 16 1
34 14 42 1
35 15 43 1
36 16 27 1
37 16 41 1
38 18 19 ar
39 18 23 ar
40 19 20 ar
41 19 38 1
42 20 21 ar
43 21 22 ar
44 21 27 ar
45 22 23 ar
46 22 25 ar
47 23 24 1
48 24 47 1
49 24 48 1
50 25 26 ar
51 26 27 ar
52 26 40 1
@<TRIPOS>SUBSTRUCTURE
1	SAM1	1	GROUP	1 A	SAM
