@<TRIPOS>MOLECULE
4DF3.A
51 53 1 0 0 
SMALL
USER_CHARGES


@<TRIPOS>ATOM
  1 N       23.3810    51.3480    19.7030 N.4   1 SAM  -0.8530 
  2 H1      22.9908    51.1485    18.7930 H     1 SAM   0.4500 
  3 H2      24.2739    50.8850    19.7953 H     1 SAM   0.4500 
  4 H3      23.5067    52.3450    19.8042 H     1 SAM   0.4500 
  5 CA      22.4530    50.8540    20.7610 C.3   1 SAM   0.3170 
  6 HA      22.8831    51.0741    21.7381 H     1 SAM   0.0800 
  7 C       22.2660    49.3530    20.5240 C.2   1 SAM   0.9060 
  8 O       22.3060    48.8770    19.3700 O.co2 1 SAM  -0.9000 
  9 CB      21.0520    51.5560    20.7140 C.3   1 SAM  -0.1600 
 10 HB1     20.4604    51.2821    21.5876 H     1 SAM   0.0800 
 11 HB2     20.5154    51.2727    19.8085 H     1 SAM   0.0800 
 12 CG      21.3380    53.0480    20.7150 C.3   1 SAM  -0.1525 
 13 HG1     21.6347    53.3307    19.7050 H     1 SAM   0.0800 
 14 HG2     22.1661    53.2277    21.4006 H     1 SAM   0.0800 
 15 SD      19.9640    54.1250    21.2110 S.3   1 SAM   0.9775 
 16 CE      19.1640    53.9860    19.5920 C.3   1 SAM  -0.2325 
 17 HE1     18.6466    53.0291    19.5234 H     1 SAM   0.0800 
 18 HE2     19.9182    54.0484    18.8075 H     1 SAM   0.0800 
 19 HE3     18.4457    54.7969    19.4708 H     1 SAM   0.0800 
 20 C5'     20.7220    55.7810    21.0250 C.3   1 SAM  -0.1525 
 21 H5'1    19.9274    56.5054    20.8463 H     1 SAM   0.0800 
 22 H5'2    21.3927    55.7582    20.1661 H     1 SAM   0.0800 
 23 C4'     21.5210    56.2320    22.2510 C.3   1 SAM   0.2000 
 24 H4'     22.0502    55.3091    22.4882 H     1 SAM   0.0800 
 25 O4'     22.3830    57.3340    21.9730 O.3   1 SAM  -0.5600 
 26 C3'     20.7190    56.6840    23.4630 C.3   1 SAM   0.2000 
 27 H3'     19.6353    56.5927    23.3905 H     1 SAM   0.0800 
 28 O3'     21.1440    55.8310    24.5310 O.3   1 SAM  -0.6800 
 29 H3'     20.7113    56.1327    25.3331 H     1 SAM   0.4000 
 30 C2'     20.9910    58.1860    23.6430 C.3   1 SAM   0.2000 
 31 H2'     20.2076    58.8075    23.2093 H     1 SAM   0.0800 
 32 O2'     21.0470    58.5650    25.0000 O.3   1 SAM  -0.6800 
 33 H2'     21.7296    58.0372    25.4209 H     1 SAM   0.4000 
 34 C1'     22.3620    58.3430    22.9990 C.3   1 SAM   0.5691 
 35 H1'     23.1218    58.2690    23.7770 H     1 SAM   0.0800 
 36 OXT     22.0790    48.6100    21.4820 O.co2 1 SAM  -0.9000 
 37 N1      25.9210    61.7900    22.0600 N.2   1 SAM  -0.6610 
 38 C2      26.0840    60.6270    22.7910 C.2   1 SAM   0.6010 
 39 H2      27.0337    60.3611    23.2311 H     1 SAM   0.0600 
 40 N3      24.9670    59.8220    22.9290 N.2   1 SAM  -0.6610 
 41 C4      23.8160    60.2780    22.3660 C.2   1 SAM   0.5000 
 42 C5      23.6850    61.4780    21.6070 C.2   1 SAM   0.4500 
 43 C6      24.7870    62.3020    21.4450 C.2   1 SAM   0.6110 
 44 N6      24.7740    63.5040    20.7490 N.2   1 SAM  -0.2000 
 45 H62     25.6186    64.0525    20.6727 H     1 SAM   0.4000 
 46 H61     23.9199    63.8295    20.3193 H     1 SAM   0.4000 
 47 N7      22.4250    61.5630    21.1570 N.2   1 SAM  -0.6960 
 48 C8      21.7200    60.4450    21.5850 C.3   1 SAM   0.4551 
 49 H81     21.3442    59.8935    20.7232 H     1 SAM   0.0800 
 50 H82     20.8833    60.7539    22.2116 H     1 SAM   0.0800 
 51 N9      22.5910    59.6350    22.3230 N.pl3 1 SAM  -0.7882 
@<TRIPOS>BOND
  1   1   2  1   
  2   1   3  1   
  3   1   4  1   
  4   1   5  1   
  5   5   6  1   
  6   5   7  1   
  7   5   9  1   
  8   7   8  ar  
  9   7  36  ar  
 10   9  10  1   
 11   9  11  1   
 12   9  12  1   
 13  12  13  1   
 14  12  14  1   
 15  12  15  1   
 16  15  16  1   
 17  15  20  1   
 18  16  17  1   
 19  16  18  1   
 20  16  19  1   
 21  20  21  1   
 22  20  22  1   
 23  20  23  1   
 24  23  24  1   
 25  23  25  1   
 26  23  26  1   
 27  25  34  1   
 28  26  27  1   
 29  26  28  1   
 30  26  30  1   
 31  28  29  1   
 32  30  31  1   
 33  30  32  1   
 34  30  34  1   
 35  32  33  1   
 36  34  35  1   
 37  34  51  1   
 38  37  38  2   
 39  37  43  1   
 40  38  39  1   
 41  38  40  1   
 42  40  41  2   
 43  41  42  1   
 44  41  51  1   
 45  42  43  1   
 46  42  47  2   
 47  43  44  2   
 48  44  45  1   
 49  44  46  1   
 50  47  48  1   
 51  48  49  1   
 52  48  50  1   
 53  48  51  1   
@<TRIPOS>SUBSTRUCTURE
  1 SAM  25 GROUP 4 A **** 0

# MOE 2022.02 (io_trps.svl 2020.11)
