@<TRIPOS>MOLECULE
2AVD.B
51 53 1 0 0 
SMALL
USER_CHARGES


@<TRIPOS>ATOM
  1 N       -2.6130   -10.5540    56.3200 N.4   1 SAM  -0.8530 
  2 H1      -2.5119    -9.8463    55.6065 H     1 SAM   0.4500 
  3 H2      -2.2645   -11.4356    55.9716 H     1 SAM   0.4500 
  4 H3      -2.0870   -10.2841    57.1389 H     1 SAM   0.4500 
  5 CA      -4.0460   -10.6950    56.6770 C.3   1 SAM   0.3170 
  6 HA      -4.1539   -11.4589    57.4470 H     1 SAM   0.0800 
  7 C       -4.8610   -11.1580    55.4690 C.2   1 SAM   0.9060 
  8 O       -4.2940   -11.6580    54.4890 O.co2 1 SAM  -0.9000 
  9 CB      -4.5630    -9.3790    57.2360 C.3   1 SAM  -0.1600 
 10 HB1     -5.6226    -9.4973    57.4625 H     1 SAM   0.0800 
 11 HB2     -4.4383    -8.6114    56.4722 H     1 SAM   0.0800 
 12 CG      -3.8520    -8.9110    58.5050 C.3   1 SAM  -0.1525 
 13 HG1     -2.9982    -8.2952    58.2222 H     1 SAM   0.0800 
 14 HG2     -3.5032    -9.7852    59.0547 H     1 SAM   0.0800 
 15 SD      -4.9380    -7.9430    59.5790 S.3   1 SAM   0.9775 
 16 CE      -4.9950    -6.3760    58.6580 C.3   1 SAM  -0.2325 
 17 HE1     -5.6238    -6.4958    57.7758 H     1 SAM   0.0800 
 18 HE2     -3.9868    -6.0983    58.3506 H     1 SAM   0.0800 
 19 HE3     -5.4085    -5.5946    59.2956 H     1 SAM   0.0800 
 20 C5'     -3.8610    -7.4790    60.9520 C.3   1 SAM  -0.1525 
 21 H5'1    -4.3705    -6.7298    61.5580 H     1 SAM   0.0800 
 22 H5'2    -2.9419    -7.0552    60.5474 H     1 SAM   0.0800 
 23 C4'     -3.5000    -8.6740    61.8470 C.3   1 SAM   0.2000 
 24 H4'     -3.2957    -9.5172    61.1872 H     1 SAM   0.0800 
 25 O4'     -2.3730    -8.3600    62.6330 O.3   1 SAM  -0.5600 
 26 C3'     -4.6510    -9.0490    62.7970 C.3   1 SAM   0.2000 
 27 H3'     -5.5700    -8.4947    62.6065 H     1 SAM   0.0800 
 28 O3'     -5.0420   -10.4190    62.6320 O.3   1 SAM  -0.6800 
 29 H3'     -5.7322   -10.6031    63.2733 H     1 SAM   0.4000 
 30 C2'     -4.0890    -8.7400    64.1810 C.3   1 SAM   0.2000 
 31 H2'     -4.3878    -7.7577    64.5468 H     1 SAM   0.0800 
 32 O2'     -4.5620    -9.5700    65.2280 O.3   1 SAM  -0.6800 
 33 H2'     -4.3449   -10.4769    65.0001 H     1 SAM   0.4000 
 34 C1'     -2.5990    -8.9220    63.9230 C.3   1 SAM   0.5691 
 35 H1'     -2.3672    -9.9844    63.9975 H     1 SAM   0.0800 
 36 OXT     -6.0770   -11.0670    55.4560 O.co2 1 SAM  -0.9000 
 37 N1       2.1200    -9.3200    66.0410 N.2   1 SAM  -0.6610 
 38 C2       1.5290   -10.1050    65.0590 C.2   1 SAM   0.6010 
 39 H2       2.0766   -10.9341    64.6358 H     1 SAM   0.0600 
 40 N3       0.2460    -9.8350    64.6180 N.2   1 SAM  -0.6610 
 41 C4      -0.4300    -8.7830    65.1560 C.2   1 SAM   0.5000 
 42 C5       0.1390    -7.9770    66.1490 C.2   1 SAM   0.4500 
 43 C6       1.4340    -8.2400    66.5920 C.2   1 SAM   0.6110 
 44 N6       2.0210    -7.4810    67.5300 N.2   1 SAM  -0.2000 
 45 H62      2.9606    -7.6916    67.8348 H     1 SAM   0.4000 
 46 H61      1.5232    -6.6991    67.9312 H     1 SAM   0.4000 
 47 N7      -0.7780    -7.0390    66.4690 N.2   1 SAM  -0.6960 
 48 C8      -1.8900    -7.2280    65.7300 C.3   1 SAM   0.4551 
 49 H81     -2.0839    -6.3440    65.1226 H     1 SAM   0.0800 
 50 H82     -2.7414    -7.4126    66.3851 H     1 SAM   0.0800 
 51 N9      -1.6850    -8.3170    64.9150 N.pl3 1 SAM  -0.7882 
@<TRIPOS>BOND
  1   1   2  1   
  2   1   3  1   
  3   1   4  1   
  4   1   5  1   
  5   5   6  1   
  6   5   7  1   
  7   5   9  1   
  8   7   8  ar  
  9   7  36  ar  
 10   9  10  1   
 11   9  11  1   
 12   9  12  1   
 13  12  13  1   
 14  12  14  1   
 15  12  15  1   
 16  15  16  1   
 17  15  20  1   
 18  16  17  1   
 19  16  18  1   
 20  16  19  1   
 21  20  21  1   
 22  20  22  1   
 23  20  23  1   
 24  23  24  1   
 25  23  25  1   
 26  23  26  1   
 27  25  34  1   
 28  26  27  1   
 29  26  28  1   
 30  26  30  1   
 31  28  29  1   
 32  30  31  1   
 33  30  32  1   
 34  30  34  1   
 35  32  33  1   
 36  34  35  1   
 37  34  51  1   
 38  37  38  2   
 39  37  43  1   
 40  38  39  1   
 41  38  40  1   
 42  40  41  2   
 43  41  42  1   
 44  41  51  1   
 45  42  43  1   
 46  42  47  2   
 47  43  44  2   
 48  44  45  1   
 49  44  46  1   
 50  47  48  1   
 51  48  49  1   
 52  48  50  1   
 53  48  51  1   
@<TRIPOS>SUBSTRUCTURE
  1 SAM  25 GROUP 4 B **** 0

# MOE 2022.02 (io_trps.svl 2020.11)
