# created with PyMOL 2.5.0
@<TRIPOS>MOLECULE
2AVD
27 29 1                 
SMALL
USER_CHARGES
@<TRIPOS>ATOM
1	   N	-2.613	-10.554	56.320	N.3	1	SAM601	0.000	
2	  CA	-4.046	-10.695	56.677	C.3	1	SAM601	0.000	
3	   C	-4.861	-11.158	55.469	C.2	1	SAM601	0.000	
4	   O	-4.294	-11.658	54.489	O.co2	1	SAM601	0.000	
5	  CB	-4.563	-9.379	57.236	C.3	1	SAM601	0.000	
6	  CG	-3.852	-8.911	58.505	C.3	1	SAM601	0.000	
7	  SD	-4.938	-7.943	59.579	S.3	1	SAM601	0.000	
8	  CE	-4.995	-6.376	58.658	C.3	1	SAM601	0.000	
9	 C5'	-3.861	-7.479	60.952	C.3	1	SAM601	0.000	
10	 C4'	-3.500	-8.674	61.847	C.3	1	SAM601	0.000	
11	 O4'	-2.373	-8.360	62.633	O.3	1	SAM601	0.000	
12	 C3'	-4.651	-9.049	62.797	C.3	1	SAM601	0.000	
13	 O3'	-5.042	-10.419	62.632	O.3	1	SAM601	0.000	
14	 C2'	-4.089	-8.740	64.181	C.3	1	SAM601	0.000	
15	 O2'	-4.562	-9.570	65.228	O.3	1	SAM601	0.000	
16	 C1'	-2.599	-8.922	63.923	C.3	1	SAM601	0.000	
17	 OXT	-6.077	-11.067	55.456	O.co2	1	SAM601	0.000	
18	  N1	2.120	-9.320	66.041	N.2	1	SAM601	0.000	
19	  C2	1.529	-10.105	65.059	C.2	1	SAM601	0.000	
20	  N3	0.246	-9.835	64.618	N.2	1	SAM601	0.000	
21	  C4	-0.430	-8.783	65.156	C.2	1	SAM601	0.000	
22	  C5	0.139	-7.977	66.149	C.2	1	SAM601	0.000	
23	  C6	1.434	-8.240	66.592	C.2	1	SAM601	0.000	
24	  N6	2.021	-7.481	67.530	N.pl3	1	SAM601	0.000	
25	  N7	-0.778	-7.039	66.469	N.2	1	SAM601	0.000	
26	  C8	-1.890	-7.228	65.730	C.2	1	SAM601	0.000	
27	  N9	-1.685	-8.317	64.915	N.2	1	SAM601	0.000	
@<TRIPOS>BOND
1 1 2 1
2 2 3 1
3 2 5 1
4 3 4 ar
5 3 17 ar
6 5 6 1
7 6 7 1
8 7 8 1
9 7 9 1
10 9 10 1
11 10 11 1
12 10 12 1
13 11 16 1
14 12 13 1
15 12 14 1
16 14 15 1
17 14 16 1
18 16 27 1
19 18 19 ar
20 18 23 ar
21 19 20 ar
22 20 21 ar
23 21 22 ar
24 21 27 ar
25 22 23 ar
26 22 25 ar
27 23 24 1
28 25 26 ar
29 26 27 ar
@<TRIPOS>SUBSTRUCTURE
1	SAM601	1	GROUP	1 B	SAM
