# created with PyMOL 2.4.0
@<TRIPOS>MOLECULE
temp
50 52 1                 
SMALL
USER_CHARGES
@<TRIPOS>ATOM
1	   N	-2.613	-10.554	56.320	N.4	1	SAM1	0.000	
2	  CA	-4.046	-10.695	56.677	C.3	1	SAM1	0.000	
3	   C	-4.861	-11.158	55.469	C.2	1	SAM1	0.000	
4	   O	-4.294	-11.658	54.489	O.co2	1	SAM1	0.000	
5	  CB	-4.563	-9.379	57.236	C.3	1	SAM1	0.000	
6	  CG	-3.852	-8.911	58.505	C.3	1	SAM1	0.000	
7	  SD	-4.938	-7.943	59.579	S.3	1	SAM1	0.000	
8	  CE	-4.995	-6.376	58.658	C.3	1	SAM1	0.000	
9	 C5'	-3.861	-7.479	60.952	C.3	1	SAM1	0.000	
10	 C4'	-3.500	-8.674	61.847	C.3	1	SAM1	0.000	
11	 O4'	-2.373	-8.360	62.633	O.3	1	SAM1	0.000	
12	 C3'	-4.651	-9.049	62.797	C.3	1	SAM1	0.000	
13	 O3'	-5.042	-10.419	62.632	O.3	1	SAM1	0.000	
14	 C2'	-4.089	-8.740	64.181	C.3	1	SAM1	0.000	
15	 O2'	-4.562	-9.570	65.228	O.3	1	SAM1	0.000	
16	 C1'	-2.599	-8.922	63.923	C.3	1	SAM1	0.000	
17	 OXT	-6.077	-11.067	55.456	O.co2	1	SAM1	0.000	
18	  N1	2.120	-9.320	66.041	N.2	1	SAM1	0.000	
19	  C2	1.529	-10.105	65.059	C.2	1	SAM1	0.000	
20	  N3	0.246	-9.835	64.618	N.2	1	SAM1	0.000	
21	  C4	-0.430	-8.783	65.156	C.2	1	SAM1	0.000	
22	  C5	0.139	-7.977	66.149	C.2	1	SAM1	0.000	
23	  C6	1.434	-8.240	66.592	C.2	1	SAM1	0.000	
24	  N6	2.021	-7.481	67.530	N.pl3	1	SAM1	0.000	
25	  N7	-0.778	-7.039	66.469	N.2	1	SAM1	0.000	
26	  C8	-1.890	-7.228	65.730	C.2	1	SAM1	0.000	
27	  N9	-1.685	-8.317	64.915	N.2	1	SAM1	0.000	
28	  HA	-4.154	-11.459	57.447	 H	1	SAM1	0.000	
29	 HB1	-5.623	-9.497	57.463	 H	1	SAM1	0.000	
30	 HB2	-4.438	-8.611	56.472	 H	1	SAM1	0.000	
31	 HG1	-2.998	-8.295	58.222	 H	1	SAM1	0.000	
32	 HG2	-3.503	-9.785	59.055	 H	1	SAM1	0.000	
33	 HE1	-5.624	-6.496	57.776	 H	1	SAM1	0.000	
34	 HE2	-3.987	-6.098	58.351	 H	1	SAM1	0.000	
35	 HE3	-5.409	-5.595	59.296	 H	1	SAM1	0.000	
36	  H1	-2.512	-9.846	55.606	 H	1	SAM1	0.000	
37	  H2	-2.264	-11.436	55.972	 H	1	SAM1	0.000	
38	  H2	2.077	-10.934	64.636	 H	1	SAM1	0.000	
39	  H3	-2.087	-10.284	57.139	 H	1	SAM1	0.000	
40	  H8	-2.787	-6.628	65.771	 H	1	SAM1	0.000	
41	 H1'	-2.367	-9.984	63.998	 H	1	SAM1	0.000	
42	 H2'	-4.388	-7.758	64.547	 H	1	SAM1	0.000	
43	 H2'	-5.512	-9.444	65.291	 H	1	SAM1	0.000	
44	 H3'	-5.570	-8.495	62.606	 H	1	SAM1	0.000	
45	 H3'	-5.732	-10.603	63.273	 H	1	SAM1	0.000	
46	 H4'	-3.296	-9.517	61.187	 H	1	SAM1	0.000	
47	 H61	1.523	-6.699	67.931	 H	1	SAM1	0.000	
48	 H62	2.961	-7.692	67.835	 H	1	SAM1	0.000	
49	H5'1	-4.371	-6.730	61.558	 H	1	SAM1	0.000	
50	H5'2	-2.942	-7.055	60.547	 H	1	SAM1	0.000	
@<TRIPOS>BOND
1 1 2 1
2 1 36 1
3 1 37 1
4 1 39 1
5 2 3 1
6 2 5 1
7 2 28 1
8 3 4 ar
9 3 17 ar
10 5 6 1
11 5 29 1
12 5 30 1
13 6 7 1
14 6 31 1
15 6 32 1
16 7 8 1
17 7 9 1
18 8 33 1
19 8 34 1
20 8 35 1
21 9 10 1
22 9 49 1
23 9 50 1
24 10 11 1
25 10 12 1
26 10 46 1
27 11 16 1
28 12 13 1
29 12 14 1
30 12 44 1
31 13 45 1
32 14 15 1
33 14 16 1
34 14 42 1
35 15 43 1
36 16 27 1
37 16 41 1
38 18 19 ar
39 18 23 ar
40 19 20 ar
41 19 38 1
42 20 21 ar
43 21 22 ar
44 21 27 ar
45 22 23 ar
46 22 25 ar
47 23 24 1
48 24 47 1
49 24 48 1
50 25 26 ar
51 26 27 ar
52 26 40 1
@<TRIPOS>SUBSTRUCTURE
1	SAM1	1	GROUP	1 B	SAM
