@<TRIPOS>MOLECULE
2AVD.A
51 53 1 0 0 
SMALL
USER_CHARGES


@<TRIPOS>ATOM
  1 N        5.4730     4.3950    25.6980 N.4   1 SAM  -0.8530 
  2 H1       4.7265     4.1807    26.3437 H     1 SAM   0.4500 
  3 H2       6.3543     4.0978    26.0917 H     1 SAM   0.4500 
  4 H3       5.3134     3.9108    24.8261 H     1 SAM   0.4500 
  5 CA       5.5100     5.8810    25.4480 C.3   1 SAM   0.3170 
  6 HA       6.3169     6.1071    24.7509 H     1 SAM   0.0800 
  7 C        5.7390     6.6200    26.7400 C.2   1 SAM   0.9060 
  8 O        5.7540     5.9900    27.7990 O.co2 1 SAM  -0.9000 
  9 CB       4.1670     6.3100    24.8880 C.3   1 SAM  -0.1600 
 10 HB1      4.2219     7.3702    24.6407 H     1 SAM   0.0800 
 11 HB2      3.4100     6.1550    25.6568 H     1 SAM   0.0800 
 12 CG       3.7430     5.5480    23.6380 C.3   1 SAM  -0.1525 
 13 HG1      3.4132     4.5478    23.9190 H     1 SAM   0.0800 
 14 HG2      4.5898     5.4731    22.9558 H     1 SAM   0.0800 
 15 SD       2.3740     6.4260    22.8090 S.3   1 SAM   0.9775 
 16 CE       1.0060     5.9030    23.8770 C.3   1 SAM  -0.2325 
 17 HE1      1.0232     6.4830    24.7997 H     1 SAM   0.0800 
 18 HE2      1.1126     4.8439    24.1115 H     1 SAM   0.0800 
 19 HE3      0.0596     6.0676    23.3620 H     1 SAM   0.0800 
 20 C5'      2.1240     5.3350    21.3790 C.3   1 SAM  -0.1525 
 21 H5'1     1.1983     5.6276    20.8834 H     1 SAM   0.0800 
 22 H5'2     2.0340     4.3111    21.7417 H     1 SAM   0.0800 
 23 C4'      3.2560     5.3820    20.3490 C.3   1 SAM   0.2000 
 24 H4'      4.1974     5.3182    20.8947 H     1 SAM   0.0800 
 25 O4'      3.1240     4.3170    19.4210 O.3   1 SAM  -0.5600 
 26 C3'      3.1630     6.6710    19.5280 C.3   1 SAM   0.2000 
 27 H3'      2.3839     7.3401    19.8934 H     1 SAM   0.0800 
 28 O3'      4.3520     7.4140    19.5980 O.3   1 SAM  -0.6800 
 29 H3'      4.2442     8.1876    19.0398 H     1 SAM   0.4000 
 30 C2'      2.9020     6.1810    18.1030 C.3   1 SAM   0.2000 
 31 H2'      1.8434     6.2561    17.8544 H     1 SAM   0.0800 
 32 O2'      3.5100     6.9150    17.0620 O.3   1 SAM  -0.6800 
 33 H2'      4.4584     6.8970    17.2097 H     1 SAM   0.4000 
 34 C1'      3.5210     4.7970    18.1680 C.3   1 SAM   0.5691 
 35 H1'      4.5979     4.8702    18.0161 H     1 SAM   0.0800 
 36 OXT      5.8750     7.8200    26.7560 O.co2 1 SAM  -0.9000 
 37 N1       5.0070     0.6030    15.4540 N.2   1 SAM  -0.6610 
 38 C2       5.6950     1.3050    16.4310 C.2   1 SAM   0.6010 
 39 H2       6.6883     0.9909    16.7157 H     1 SAM   0.0600 
 40 N3       5.1220     2.4040    17.0450 N.2   1 SAM  -0.6610 
 41 C4       3.8640     2.8240    16.6790 C.2   1 SAM   0.5000 
 42 C5       3.1540     2.1470    15.6900 C.2   1 SAM   0.4500 
 43 C6       3.7260     1.0190    15.0820 C.2   1 SAM   0.6110 
 44 N6       3.0650     0.3470    14.1260 N.2   1 SAM  -0.2000 
 45 H62      3.4864    -0.4636    13.6952 H     1 SAM   0.4000 
 46 H61      2.1464     0.6520    13.8376 H     1 SAM   0.4000 
 47 N7       1.9500     2.7760    15.5540 N.2   1 SAM  -0.6960 
 48 C8       1.9010     3.8360    16.4070 C.3   1 SAM   0.4551 
 49 H81      1.0618     3.7231    17.0934 H     1 SAM   0.0800 
 50 H82      1.7876     4.7623    15.8438 H     1 SAM   0.0800 
 51 N9       3.0860     3.8550    17.1110 N.pl3 1 SAM  -0.7882 
@<TRIPOS>BOND
  1   1   2  1   
  2   1   3  1   
  3   1   4  1   
  4   1   5  1   
  5   5   6  1   
  6   5   7  1   
  7   5   9  1   
  8   7   8  ar  
  9   7  36  ar  
 10   9  10  1   
 11   9  11  1   
 12   9  12  1   
 13  12  13  1   
 14  12  14  1   
 15  12  15  1   
 16  15  16  1   
 17  15  20  1   
 18  16  17  1   
 19  16  18  1   
 20  16  19  1   
 21  20  21  1   
 22  20  22  1   
 23  20  23  1   
 24  23  24  1   
 25  23  25  1   
 26  23  26  1   
 27  25  34  1   
 28  26  27  1   
 29  26  28  1   
 30  26  30  1   
 31  28  29  1   
 32  30  31  1   
 33  30  32  1   
 34  30  34  1   
 35  32  33  1   
 36  34  35  1   
 37  34  51  1   
 38  37  38  2   
 39  37  43  1   
 40  38  39  1   
 41  38  40  1   
 42  40  41  2   
 43  41  42  1   
 44  41  51  1   
 45  42  43  1   
 46  42  47  2   
 47  43  44  2   
 48  44  45  1   
 49  44  46  1   
 50  47  48  1   
 51  48  49  1   
 52  48  50  1   
 53  48  51  1   
@<TRIPOS>SUBSTRUCTURE
  1 SAM  25 GROUP 4 A **** 0

# MOE 2022.02 (io_trps.svl 2020.11)
