# created with PyMOL 2.4.0
@<TRIPOS>MOLECULE
temp
50 52 1                 
SMALL
USER_CHARGES
@<TRIPOS>ATOM
1	   N	5.473	4.395	25.698	N.4	1	SAM1	0.000	
2	  CA	5.510	5.881	25.448	C.3	1	SAM1	0.000	
3	   C	5.739	6.620	26.740	C.2	1	SAM1	0.000	
4	   O	5.754	5.990	27.799	O.co2	1	SAM1	0.000	
5	  CB	4.167	6.310	24.888	C.3	1	SAM1	0.000	
6	  CG	3.743	5.548	23.638	C.3	1	SAM1	0.000	
7	  SD	2.374	6.426	22.809	S.3	1	SAM1	0.000	
8	  CE	1.006	5.903	23.877	C.3	1	SAM1	0.000	
9	 C5'	2.124	5.335	21.379	C.3	1	SAM1	0.000	
10	 C4'	3.256	5.382	20.349	C.3	1	SAM1	0.000	
11	 O4'	3.124	4.317	19.421	O.3	1	SAM1	0.000	
12	 C3'	3.163	6.671	19.528	C.3	1	SAM1	0.000	
13	 O3'	4.352	7.414	19.598	O.3	1	SAM1	0.000	
14	 C2'	2.902	6.181	18.103	C.3	1	SAM1	0.000	
15	 O2'	3.510	6.915	17.062	O.3	1	SAM1	0.000	
16	 C1'	3.521	4.797	18.168	C.3	1	SAM1	0.000	
17	 OXT	5.875	7.820	26.756	O.co2	1	SAM1	0.000	
18	  N1	5.007	0.603	15.454	N.2	1	SAM1	0.000	
19	  C2	5.695	1.305	16.431	C.2	1	SAM1	0.000	
20	  N3	5.122	2.404	17.045	N.2	1	SAM1	0.000	
21	  C4	3.864	2.824	16.679	C.2	1	SAM1	0.000	
22	  C5	3.154	2.147	15.690	C.2	1	SAM1	0.000	
23	  C6	3.726	1.019	15.082	C.2	1	SAM1	0.000	
24	  N6	3.065	0.347	14.126	N.pl3	1	SAM1	0.000	
25	  N7	1.950	2.776	15.554	N.2	1	SAM1	0.000	
26	  C8	1.901	3.836	16.407	C.2	1	SAM1	0.000	
27	  N9	3.086	3.855	17.111	N.2	1	SAM1	0.000	
28	  HA	6.317	6.107	24.751	 H	1	SAM1	0.000	
29	 HB1	4.222	7.370	24.641	 H	1	SAM1	0.000	
30	 HB2	3.410	6.155	25.657	 H	1	SAM1	0.000	
31	 HG1	3.413	4.548	23.919	 H	1	SAM1	0.000	
32	 HG2	4.590	5.473	22.956	 H	1	SAM1	0.000	
33	 HE1	1.023	6.483	24.800	 H	1	SAM1	0.000	
34	 HE2	1.113	4.844	24.111	 H	1	SAM1	0.000	
35	 HE3	0.060	6.068	23.362	 H	1	SAM1	0.000	
36	  H1	4.727	4.181	26.344	 H	1	SAM1	0.000	
37	  H2	6.354	4.098	26.092	 H	1	SAM1	0.000	
38	  H2	6.688	0.991	16.716	 H	1	SAM1	0.000	
39	  H3	5.313	3.911	24.826	 H	1	SAM1	0.000	
40	  H8	1.084	4.534	16.513	 H	1	SAM1	0.000	
41	 H1'	4.598	4.870	18.016	 H	1	SAM1	0.000	
42	 H2'	1.843	6.256	17.854	 H	1	SAM1	0.000	
43	 H2'	3.168	7.811	17.101	 H	1	SAM1	0.000	
44	 H3'	2.384	7.340	19.893	 H	1	SAM1	0.000	
45	 H3'	4.244	8.188	19.040	 H	1	SAM1	0.000	
46	 H4'	4.197	5.318	20.895	 H	1	SAM1	0.000	
47	 H61	2.146	0.652	13.838	 H	1	SAM1	0.000	
48	 H62	3.486	-0.464	13.695	 H	1	SAM1	0.000	
49	H5'1	1.198	5.628	20.883	 H	1	SAM1	0.000	
50	H5'2	2.034	4.311	21.742	 H	1	SAM1	0.000	
@<TRIPOS>BOND
1 1 2 1
2 1 36 1
3 1 37 1
4 1 39 1
5 2 3 1
6 2 5 1
7 2 28 1
8 3 4 ar
9 3 17 ar
10 5 6 1
11 5 29 1
12 5 30 1
13 6 7 1
14 6 31 1
15 6 32 1
16 7 8 1
17 7 9 1
18 8 33 1
19 8 34 1
20 8 35 1
21 9 10 1
22 9 49 1
23 9 50 1
24 10 11 1
25 10 12 1
26 10 46 1
27 11 16 1
28 12 13 1
29 12 14 1
30 12 44 1
31 13 45 1
32 14 15 1
33 14 16 1
34 14 42 1
35 15 43 1
36 16 27 1
37 16 41 1
38 18 19 ar
39 18 23 ar
40 19 20 ar
41 19 38 1
42 20 21 ar
43 21 22 ar
44 21 27 ar
45 22 23 ar
46 22 25 ar
47 23 24 1
48 24 47 1
49 24 48 1
50 25 26 ar
51 26 27 ar
52 26 40 1
@<TRIPOS>SUBSTRUCTURE
1	SAM1	1	GROUP	1 A	SAM
