# created with PyMOL 2.5.0
@<TRIPOS>MOLECULE
2AVD
27 29 1                 
SMALL
USER_CHARGES
@<TRIPOS>ATOM
1	   N	5.473	4.395	25.698	N.3	1	SAM501	0.000	
2	  CA	5.510	5.881	25.448	C.3	1	SAM501	0.000	
3	   C	5.739	6.620	26.740	C.2	1	SAM501	0.000	
4	   O	5.754	5.990	27.799	O.co2	1	SAM501	0.000	
5	  CB	4.167	6.310	24.888	C.3	1	SAM501	0.000	
6	  CG	3.743	5.548	23.638	C.3	1	SAM501	0.000	
7	  SD	2.374	6.426	22.809	S.3	1	SAM501	0.000	
8	  CE	1.006	5.903	23.877	C.3	1	SAM501	0.000	
9	 C5'	2.124	5.335	21.379	C.3	1	SAM501	0.000	
10	 C4'	3.256	5.382	20.349	C.3	1	SAM501	0.000	
11	 O4'	3.124	4.317	19.421	O.3	1	SAM501	0.000	
12	 C3'	3.163	6.671	19.528	C.3	1	SAM501	0.000	
13	 O3'	4.352	7.414	19.598	O.3	1	SAM501	0.000	
14	 C2'	2.902	6.181	18.103	C.3	1	SAM501	0.000	
15	 O2'	3.510	6.915	17.062	O.3	1	SAM501	0.000	
16	 C1'	3.521	4.797	18.168	C.3	1	SAM501	0.000	
17	 OXT	5.875	7.820	26.756	O.co2	1	SAM501	0.000	
18	  N1	5.007	0.603	15.454	N.2	1	SAM501	0.000	
19	  C2	5.695	1.305	16.431	C.2	1	SAM501	0.000	
20	  N3	5.122	2.404	17.045	N.2	1	SAM501	0.000	
21	  C4	3.864	2.824	16.679	C.2	1	SAM501	0.000	
22	  C5	3.154	2.147	15.690	C.2	1	SAM501	0.000	
23	  C6	3.726	1.019	15.082	C.2	1	SAM501	0.000	
24	  N6	3.065	0.347	14.126	N.pl3	1	SAM501	0.000	
25	  N7	1.950	2.776	15.554	N.2	1	SAM501	0.000	
26	  C8	1.901	3.836	16.407	C.2	1	SAM501	0.000	
27	  N9	3.086	3.855	17.111	N.2	1	SAM501	0.000	
@<TRIPOS>BOND
1 1 2 1
2 2 3 1
3 2 5 1
4 3 4 ar
5 3 17 ar
6 5 6 1
7 6 7 1
8 7 8 1
9 7 9 1
10 9 10 1
11 10 11 1
12 10 12 1
13 11 16 1
14 12 13 1
15 12 14 1
16 14 15 1
17 14 16 1
18 16 27 1
19 18 19 ar
20 18 23 ar
21 19 20 ar
22 20 21 ar
23 21 22 ar
24 21 27 ar
25 22 23 ar
26 22 25 ar
27 23 24 1
28 25 26 ar
29 26 27 ar
@<TRIPOS>SUBSTRUCTURE
1	SAM501	1	GROUP	1 A	SAM
