# created with PyMOL 2.5.0
@<TRIPOS>MOLECULE
4HTF
27 29 1                 
SMALL
USER_CHARGES
@<TRIPOS>ATOM
1	   N	12.040	-1.415	15.453	N.3	1	SAM301	0.000	
2	  CA	13.048	-2.471	15.528	C.3	1	SAM301	0.000	
3	   C	14.232	-1.974	16.294	C.2	1	SAM301	0.000	
4	   O	15.233	-2.715	16.377	O.co2	1	SAM301	0.000	
5	  CB	13.491	-3.010	14.147	C.3	1	SAM301	0.000	
6	  CG	14.186	-1.959	13.248	C.3	1	SAM301	0.000	
7	  SD	14.636	-2.461	11.689	S.3	1	SAM301	0.000	
8	  CE	16.104	-1.758	11.306	C.3	1	SAM301	0.000	
9	 C5'	13.467	-1.899	10.627	C.3	1	SAM301	0.000	
10	 C4'	12.226	-2.788	10.636	C.3	1	SAM301	0.000	
11	 O4'	11.123	-2.121	10.026	O.3	1	SAM301	0.000	
12	 C3'	12.408	-4.096	9.872	C.3	1	SAM301	0.000	
13	 O3'	12.008	-5.214	10.702	O.3	1	SAM301	0.000	
14	 C2'	11.529	-3.980	8.654	C.3	1	SAM301	0.000	
15	 O2'	11.096	-5.296	8.210	O.3	1	SAM301	0.000	
16	 C1'	10.440	-3.064	9.150	C.3	1	SAM301	0.000	
17	 OXT	14.206	-0.867	16.870	O.co2	1	SAM301	0.000	
18	  N1	5.945	-0.952	7.680	N.2	1	SAM301	0.000	
19	  C2	6.214	-1.864	8.612	C.2	1	SAM301	0.000	
20	  N3	7.422	-2.348	8.903	N.2	1	SAM301	0.000	
21	  C4	8.484	-1.934	8.179	C.2	1	SAM301	0.000	
22	  C5	8.290	-0.951	7.143	C.2	1	SAM301	0.000	
23	  C6	6.938	-0.454	6.906	C.2	1	SAM301	0.000	
24	  N6	6.700	0.423	5.938	N.pl3	1	SAM301	0.000	
25	  N7	9.491	-0.726	6.554	N.2	1	SAM301	0.000	
26	  C8	10.386	-1.457	7.220	C.2	1	SAM301	0.000	
27	  N9	9.772	-2.196	8.174	N.2	1	SAM301	0.000	
@<TRIPOS>BOND
1 1 2 1
2 2 3 1
3 2 5 1
4 3 4 ar
5 3 17 ar
6 5 6 1
7 6 7 1
8 7 8 1
9 7 9 1
10 9 10 1
11 10 11 1
12 10 12 1
13 11 16 1
14 12 13 1
15 12 14 1
16 14 15 1
17 14 16 1
18 16 27 1
19 18 19 ar
20 18 23 ar
21 19 20 ar
22 20 21 ar
23 21 22 ar
24 21 27 ar
25 22 23 ar
26 22 25 ar
27 23 24 1
28 25 26 ar
29 26 27 ar
@<TRIPOS>SUBSTRUCTURE
1	SAM301	1	GROUP	1 A	SAM
