# created with PyMOL 2.5.0
@<TRIPOS>MOLECULE
4HTF
27 29 1                 
SMALL
USER_CHARGES
@<TRIPOS>ATOM
1	   N	45.776	36.465	18.561	N.3	1	SAM301	0.000	
2	  CA	46.875	35.539	18.527	C.3	1	SAM301	0.000	
3	   C	46.509	34.381	17.636	C.2	1	SAM301	0.000	
4	   O	47.344	33.475	17.527	O.co2	1	SAM301	0.000	
5	  CB	47.320	35.030	19.901	C.3	1	SAM301	0.000	
6	  CG	46.349	34.149	20.722	C.3	1	SAM301	0.000	
7	  SD	46.982	33.667	22.211	S.3	1	SAM301	0.000	
8	  CE	46.411	32.163	22.660	C.3	1	SAM301	0.000	
9	 C5'	46.385	34.791	23.296	C.3	1	SAM301	0.000	
10	 C4'	47.222	36.075	23.356	C.3	1	SAM301	0.000	
11	 O4'	46.486	37.021	24.121	O.3	1	SAM301	0.000	
12	 C3'	48.583	35.887	24.046	C.3	1	SAM301	0.000	
13	 O3'	49.666	36.412	23.234	O.3	1	SAM301	0.000	
14	 C2'	48.473	36.628	25.374	C.3	1	SAM301	0.000	
15	 O2'	49.736	37.186	25.882	O.3	1	SAM301	0.000	
16	 C1'	47.420	37.666	25.025	C.3	1	SAM301	0.000	
17	 OXT	45.386	34.402	17.080	O.co2	1	SAM301	0.000	
18	  N1	44.792	41.845	26.626	N.2	1	SAM301	0.000	
19	  C2	45.637	41.673	25.574	C.2	1	SAM301	0.000	
20	  N3	46.275	40.522	25.355	N.2	1	SAM301	0.000	
21	  C4	46.020	39.399	26.071	C.2	1	SAM301	0.000	
22	  C5	45.094	39.483	27.205	C.2	1	SAM301	0.000	
23	  C6	44.480	40.806	27.443	C.2	1	SAM301	0.000	
24	  N6	43.627	40.986	28.480	N.pl3	1	SAM301	0.000	
25	  N7	45.096	38.263	27.805	N.2	1	SAM301	0.000	
26	  C8	45.933	37.446	27.092	C.2	1	SAM301	0.000	
27	  N9	46.539	38.160	26.096	N.2	1	SAM301	0.000	
@<TRIPOS>BOND
1 1 2 1
2 2 3 1
3 2 5 1
4 3 4 ar
5 3 17 ar
6 5 6 1
7 6 7 1
8 7 8 1
9 7 9 1
10 9 10 1
11 10 11 1
12 10 12 1
13 11 16 1
14 12 13 1
15 12 14 1
16 14 15 1
17 14 16 1
18 16 27 1
19 18 19 ar
20 18 23 ar
21 19 20 ar
22 20 21 ar
23 21 22 ar
24 21 27 ar
25 22 23 ar
26 22 25 ar
27 23 24 1
28 25 26 ar
29 26 27 ar
@<TRIPOS>SUBSTRUCTURE
1	SAM301	1	GROUP	1 B	SAM
