@<TRIPOS>MOLECULE
4HTF.A
51 53 1 0 0 
SMALL
USER_CHARGES


@<TRIPOS>ATOM
  1 N       12.0400    -1.4150    15.4530 N.4   1 SAM  -0.8530 
  2 H1      12.4290    -0.6112    14.9811 H     1 SAM   0.4500 
  3 H2      11.7568    -1.1530    16.3864 H     1 SAM   0.4500 
  4 H3      11.2377    -1.7512    14.9397 H     1 SAM   0.4500 
  5 CA      13.0480    -2.4710    15.5280 C.3   1 SAM   0.3170 
  6 HA      12.5848    -3.3130    16.0424 H     1 SAM   0.0800 
  7 C       14.2320    -1.9740    16.2940 C.2   1 SAM   0.9060 
  8 O       15.2330    -2.7150    16.3770 O.co2 1 SAM  -0.9000 
  9 CB      13.4910    -3.0100    14.1470 C.3   1 SAM  -0.1600 
 10 HB1     12.6078    -3.3766    13.6239 H     1 SAM   0.0800 
 11 HB2     14.1857    -3.8342    14.3087 H     1 SAM   0.0800 
 12 CG      14.1860    -1.9590    13.2480 C.3   1 SAM  -0.1525 
 13 HG1     15.0894    -1.6311    13.7623 H     1 SAM   0.0800 
 14 HG2     13.5038    -1.1159    13.1387 H     1 SAM   0.0800 
 15 SD      14.6360    -2.4610    11.6890 S.3   1 SAM   0.9775 
 16 CE      16.1040    -1.7580    11.3060 C.3   1 SAM  -0.2325 
 17 HE1     16.8698    -2.1188    11.9927 H     1 SAM   0.0800 
 18 HE2     16.0211    -0.6745    11.3909 H     1 SAM   0.0800 
 19 HE3     16.3781    -2.0225    10.2847 H     1 SAM   0.0800 
 20 C5'     13.4670    -1.8990    10.6270 C.3   1 SAM  -0.1525 
 21 H5'1    13.8829    -1.8822     9.6196 H     1 SAM   0.0800 
 22 H5'2    13.1805    -0.8886    10.9186 H     1 SAM   0.0800 
 23 C4'     12.2260    -2.7880    10.6360 C.3   1 SAM   0.2000 
 24 H4'     12.0471    -3.0052    11.6890 H     1 SAM   0.0800 
 25 O4'     11.1230    -2.1210    10.0260 O.3   1 SAM  -0.5600 
 26 C3'     12.4080    -4.0960     9.8720 C.3   1 SAM   0.2000 
 27 H3'     13.4468    -4.2686     9.5906 H     1 SAM   0.0800 
 28 O3'     12.0080    -5.2140    10.7020 O.3   1 SAM  -0.6800 
 29 H3'     12.1052    -6.0132    10.1790 H     1 SAM   0.4000 
 30 C2'     11.5290    -3.9800     8.6540 C.3   1 SAM   0.2000 
 31 H2'     11.9996    -3.5773     7.7571 H     1 SAM   0.0800 
 32 O2'     11.0960    -5.2960     8.2100 O.3   1 SAM  -0.6800 
 33 H2'     10.4873    -5.1698     7.4784 H     1 SAM   0.4000 
 34 C1'     10.4400    -3.0640     9.1500 C.3   1 SAM   0.5691 
 35 H1'      9.6731    -3.7214     9.5597 H     1 SAM   0.0800 
 36 OXT     14.2060    -0.8670    16.8700 O.co2 1 SAM  -0.9000 
 37 N1       5.9450    -0.9520     7.6800 N.2   1 SAM  -0.6610 
 38 C2       6.2140    -1.8640     8.6120 C.2   1 SAM   0.6010 
 39 H2       5.3802    -2.2455     9.1827 H     1 SAM   0.0600 
 40 N3       7.4220    -2.3480     8.9030 N.2   1 SAM  -0.6610 
 41 C4       8.4840    -1.9340     8.1790 C.2   1 SAM   0.5000 
 42 C5       8.2900    -0.9510     7.1430 C.2   1 SAM   0.4500 
 43 C6       6.9380    -0.4540     6.9060 C.2   1 SAM   0.6110 
 44 N6       6.7000     0.4230     5.9380 N.2   1 SAM  -0.2000 
 45 H62      5.7610     0.7607     5.7822 H     1 SAM   0.4000 
 46 H61      7.4580     0.7524     5.3575 H     1 SAM   0.4000 
 47 N7       9.4910    -0.7260     6.5540 N.2   1 SAM  -0.6960 
 48 C8      10.3860    -1.4570     7.2200 C.3   1 SAM   0.4551 
 49 H81     11.1129    -0.7948     7.6903 H     1 SAM   0.0800 
 50 H82     10.8973    -2.1217     6.5237 H     1 SAM   0.0800 
 51 N9       9.7720    -2.1960     8.1740 N.pl3 1 SAM  -0.7882 
@<TRIPOS>BOND
  1   1   2  1   
  2   1   3  1   
  3   1   4  1   
  4   1   5  1   
  5   5   6  1   
  6   5   7  1   
  7   5   9  1   
  8   7   8  ar  
  9   7  36  ar  
 10   9  10  1   
 11   9  11  1   
 12   9  12  1   
 13  12  13  1   
 14  12  14  1   
 15  12  15  1   
 16  15  16  1   
 17  15  20  1   
 18  16  17  1   
 19  16  18  1   
 20  16  19  1   
 21  20  21  1   
 22  20  22  1   
 23  20  23  1   
 24  23  24  1   
 25  23  25  1   
 26  23  26  1   
 27  25  34  1   
 28  26  27  1   
 29  26  28  1   
 30  26  30  1   
 31  28  29  1   
 32  30  31  1   
 33  30  32  1   
 34  30  34  1   
 35  32  33  1   
 36  34  35  1   
 37  34  51  1   
 38  37  38  2   
 39  37  43  1   
 40  38  39  1   
 41  38  40  1   
 42  40  41  2   
 43  41  42  1   
 44  41  51  1   
 45  42  43  1   
 46  42  47  2   
 47  43  44  2   
 48  44  45  1   
 49  44  46  1   
 50  47  48  1   
 51  48  49  1   
 52  48  50  1   
 53  48  51  1   
@<TRIPOS>SUBSTRUCTURE
  1 SAM  25 GROUP 4 A **** 0

# MOE 2022.02 (io_trps.svl 2020.11)
