# created with PyMOL 2.4.0
@<TRIPOS>MOLECULE
temp
50 52 1                 
SMALL
USER_CHARGES
@<TRIPOS>ATOM
1	   N	45.776	36.465	18.561	N.4	1	SAM1	0.000	
2	  CA	46.875	35.539	18.527	C.3	1	SAM1	0.000	
3	   C	46.509	34.381	17.636	C.2	1	SAM1	0.000	
4	   O	47.344	33.475	17.527	O.co2	1	SAM1	0.000	
5	  CB	47.320	35.030	19.901	C.3	1	SAM1	0.000	
6	  CG	46.349	34.149	20.722	C.3	1	SAM1	0.000	
7	  SD	46.982	33.667	22.211	S.3	1	SAM1	0.000	
8	  CE	46.411	32.163	22.660	C.3	1	SAM1	0.000	
9	 C5'	46.385	34.791	23.296	C.3	1	SAM1	0.000	
10	 C4'	47.222	36.075	23.356	C.3	1	SAM1	0.000	
11	 O4'	46.486	37.021	24.121	O.3	1	SAM1	0.000	
12	 C3'	48.583	35.887	24.046	C.3	1	SAM1	0.000	
13	 O3'	49.666	36.412	23.234	O.3	1	SAM1	0.000	
14	 C2'	48.473	36.628	25.374	C.3	1	SAM1	0.000	
15	 O2'	49.736	37.186	25.882	O.3	1	SAM1	0.000	
16	 C1'	47.420	37.666	25.025	C.3	1	SAM1	0.000	
17	 OXT	45.386	34.402	17.080	O.co2	1	SAM1	0.000	
18	  N1	44.792	41.845	26.626	N.2	1	SAM1	0.000	
19	  C2	45.637	41.673	25.574	C.2	1	SAM1	0.000	
20	  N3	46.275	40.522	25.355	N.2	1	SAM1	0.000	
21	  C4	46.020	39.399	26.071	C.2	1	SAM1	0.000	
22	  C5	45.094	39.483	27.205	C.2	1	SAM1	0.000	
23	  C6	44.480	40.806	27.443	C.2	1	SAM1	0.000	
24	  N6	43.627	40.986	28.480	N.pl3	1	SAM1	0.000	
25	  N7	45.096	38.263	27.805	N.2	1	SAM1	0.000	
26	  C8	45.933	37.446	27.092	C.2	1	SAM1	0.000	
27	  N9	46.539	38.160	26.096	N.2	1	SAM1	0.000	
28	  HA	47.732	36.085	18.133	 H	1	SAM1	0.000	
29	 HB1	47.548	35.906	20.508	 H	1	SAM1	0.000	
30	 HB2	48.229	34.447	19.748	 H	1	SAM1	0.000	
31	 HG1	46.115	33.257	20.140	 H	1	SAM1	0.000	
32	 HG2	45.435	34.716	20.902	 H	1	SAM1	0.000	
33	 HE1	46.786	31.410	21.967	 H	1	SAM1	0.000	
34	 HE2	45.321	32.166	22.637	 H	1	SAM1	0.000	
35	 HE3	46.753	31.931	23.669	 H	1	SAM1	0.000	
36	  H1	44.955	36.000	18.921	 H	1	SAM1	0.000	
37	  H2	45.590	36.801	17.627	 H	1	SAM1	0.000	
38	  H2	45.797	42.496	24.893	 H	1	SAM1	0.000	
39	  H3	46.011	37.244	19.159	 H	1	SAM1	0.000	
40	  H8	46.091	36.396	27.287	 H	1	SAM1	0.000	
41	 H1'	48.007	38.512	24.668	 H	1	SAM1	0.000	
42	 H2'	48.209	35.986	26.215	 H	1	SAM1	0.000	
43	 H2'	50.336	36.453	26.034	 H	1	SAM1	0.000	
44	 H3'	48.813	34.832	24.195	 H	1	SAM1	0.000	
45	 H3'	50.483	36.285	23.722	 H	1	SAM1	0.000	
46	 H4'	47.415	36.393	22.331	 H	1	SAM1	0.000	
47	 H61	43.409	40.214	29.094	 H	1	SAM1	0.000	
48	 H62	43.209	41.892	28.639	 H	1	SAM1	0.000	
49	H5'1	46.370	34.341	24.288	 H	1	SAM1	0.000	
50	H5'2	45.369	35.053	23.000	 H	1	SAM1	0.000	
@<TRIPOS>BOND
1 1 2 1
2 1 36 1
3 1 37 1
4 1 39 1
5 2 3 1
6 2 5 1
7 2 28 1
8 3 4 ar
9 3 17 ar
10 5 6 1
11 5 29 1
12 5 30 1
13 6 7 1
14 6 31 1
15 6 32 1
16 7 8 1
17 7 9 1
18 8 33 1
19 8 34 1
20 8 35 1
21 9 10 1
22 9 49 1
23 9 50 1
24 10 11 1
25 10 12 1
26 10 46 1
27 11 16 1
28 12 13 1
29 12 14 1
30 12 44 1
31 13 45 1
32 14 15 1
33 14 16 1
34 14 42 1
35 15 43 1
36 16 27 1
37 16 41 1
38 18 19 ar
39 18 23 ar
40 19 20 ar
41 19 38 1
42 20 21 ar
43 21 22 ar
44 21 27 ar
45 22 23 ar
46 22 25 ar
47 23 24 1
48 24 47 1
49 24 48 1
50 25 26 ar
51 26 27 ar
52 26 40 1
@<TRIPOS>SUBSTRUCTURE
1	SAM1	1	GROUP	1 B	SAM
