@<TRIPOS>MOLECULE
4HTF.B
51 53 1 0 0 
SMALL
USER_CHARGES


@<TRIPOS>ATOM
  1 N       45.7760    36.4650    18.5610 N.4   1 SAM  -0.8530 
  2 H1      44.9550    36.0000    18.9213 H     1 SAM   0.4500 
  3 H2      45.5899    36.8011    17.6269 H     1 SAM   0.4500 
  4 H3      46.0109    37.2445    19.1587 H     1 SAM   0.4500 
  5 CA      46.8750    35.5390    18.5270 C.3   1 SAM   0.3170 
  6 HA      47.7321    36.0854    18.1332 H     1 SAM   0.0800 
  7 C       46.5090    34.3810    17.6360 C.2   1 SAM   0.9060 
  8 O       47.3440    33.4750    17.5270 O.co2 1 SAM  -0.9000 
  9 CB      47.3200    35.0300    19.9010 C.3   1 SAM  -0.1600 
 10 HB1     47.5483    35.9060    20.5082 H     1 SAM   0.0800 
 11 HB2     48.2285    34.4475    19.7476 H     1 SAM   0.0800 
 12 CG      46.3490    34.1490    20.7220 C.3   1 SAM  -0.1525 
 13 HG1     46.1151    33.2573    20.1404 H     1 SAM   0.0800 
 14 HG2     45.4354    34.7157    20.9015 H     1 SAM   0.0800 
 15 SD      46.9820    33.6670    22.2110 S.3   1 SAM   0.9775 
 16 CE      46.4110    32.1630    22.6600 C.3   1 SAM  -0.2325 
 17 HE1     46.7865    31.4101    21.9670 H     1 SAM   0.0800 
 18 HE2     45.3212    32.1664    22.6372 H     1 SAM   0.0800 
 19 HE3     46.7526    31.9310    23.6687 H     1 SAM   0.0800 
 20 C5'     46.3850    34.7910    23.2960 C.3   1 SAM  -0.1525 
 21 H5'1    46.3696    34.3406    24.2885 H     1 SAM   0.0800 
 22 H5'2    45.3692    35.0529    23.0001 H     1 SAM   0.0800 
 23 C4'     47.2220    36.0750    23.3560 C.3   1 SAM   0.2000 
 24 H4'     47.4145    36.3930    22.3313 H     1 SAM   0.0800 
 25 O4'     46.4860    37.0210    24.1210 O.3   1 SAM  -0.5600 
 26 C3'     48.5830    35.8870    24.0460 C.3   1 SAM   0.2000 
 27 H3'     48.8130    34.8320    24.1951 H     1 SAM   0.0800 
 28 O3'     49.6660    36.4120    23.2340 O.3   1 SAM  -0.6800 
 29 H3'     50.4828    36.2845    23.7220 H     1 SAM   0.4000 
 30 C2'     48.4730    36.6280    25.3740 C.3   1 SAM   0.2000 
 31 H2'     48.2087    35.9864    26.2146 H     1 SAM   0.0800 
 32 O2'     49.7360    37.1860    25.8820 O.3   1 SAM  -0.6800 
 33 H2'     49.5401    37.6513    26.6985 H     1 SAM   0.4000 
 34 C1'     47.4200    37.6660    25.0250 C.3   1 SAM   0.5691 
 35 H1'     48.0066    38.5124    24.6679 H     1 SAM   0.0800 
 36 OXT     45.3860    34.4020    17.0800 O.co2 1 SAM  -0.9000 
 37 N1      44.7920    41.8450    26.6260 N.2   1 SAM  -0.6610 
 38 C2      45.6370    41.6730    25.5740 C.2   1 SAM   0.6010 
 39 H2      45.7968    42.4959    24.8931 H     1 SAM   0.0600 
 40 N3      46.2750    40.5220    25.3550 N.2   1 SAM  -0.6610 
 41 C4      46.0200    39.3990    26.0710 C.2   1 SAM   0.5000 
 42 C5      45.0940    39.4830    27.2050 C.2   1 SAM   0.4500 
 43 C6      44.4800    40.8060    27.4430 C.2   1 SAM   0.6110 
 44 N6      43.6270    40.9860    28.4800 N.2   1 SAM  -0.2000 
 45 H62     43.2095    41.8918    28.6391 H     1 SAM   0.4000 
 46 H61     43.4085    40.2144    29.0940 H     1 SAM   0.4000 
 47 N7      45.0960    38.2630    27.8050 N.2   1 SAM  -0.6960 
 48 C8      45.9330    37.4460    27.0920 C.3   1 SAM   0.4551 
 49 H81     45.3567    36.6311    26.6539 H     1 SAM   0.0800 
 50 H82     46.6929    37.0367    27.7577 H     1 SAM   0.0800 
 51 N9      46.5390    38.1600    26.0960 N.pl3 1 SAM  -0.7882 
@<TRIPOS>BOND
  1   1   2  1   
  2   1   3  1   
  3   1   4  1   
  4   1   5  1   
  5   5   6  1   
  6   5   7  1   
  7   5   9  1   
  8   7   8  ar  
  9   7  36  ar  
 10   9  10  1   
 11   9  11  1   
 12   9  12  1   
 13  12  13  1   
 14  12  14  1   
 15  12  15  1   
 16  15  16  1   
 17  15  20  1   
 18  16  17  1   
 19  16  18  1   
 20  16  19  1   
 21  20  21  1   
 22  20  22  1   
 23  20  23  1   
 24  23  24  1   
 25  23  25  1   
 26  23  26  1   
 27  25  34  1   
 28  26  27  1   
 29  26  28  1   
 30  26  30  1   
 31  28  29  1   
 32  30  31  1   
 33  30  32  1   
 34  30  34  1   
 35  32  33  1   
 36  34  35  1   
 37  34  51  1   
 38  37  38  2   
 39  37  43  1   
 40  38  39  1   
 41  38  40  1   
 42  40  41  2   
 43  41  42  1   
 44  41  51  1   
 45  42  43  1   
 46  42  47  2   
 47  43  44  2   
 48  44  45  1   
 49  44  46  1   
 50  47  48  1   
 51  48  49  1   
 52  48  50  1   
 53  48  51  1   
@<TRIPOS>SUBSTRUCTURE
  1 SAM  25 GROUP 4 B **** 0

# MOE 2022.02 (io_trps.svl 2020.11)
