# created with PyMOL 2.4.0
@<TRIPOS>MOLECULE
temp
50 52 1                 
SMALL
USER_CHARGES
@<TRIPOS>ATOM
1	   N	12.040	-1.415	15.453	N.4	1	SAM1	0.000	
2	  CA	13.048	-2.471	15.528	C.3	1	SAM1	0.000	
3	   C	14.232	-1.974	16.294	C.2	1	SAM1	0.000	
4	   O	15.233	-2.715	16.377	O.co2	1	SAM1	0.000	
5	  CB	13.491	-3.010	14.147	C.3	1	SAM1	0.000	
6	  CG	14.186	-1.959	13.248	C.3	1	SAM1	0.000	
7	  SD	14.636	-2.461	11.689	S.3	1	SAM1	0.000	
8	  CE	16.104	-1.758	11.306	C.3	1	SAM1	0.000	
9	 C5'	13.467	-1.899	10.627	C.3	1	SAM1	0.000	
10	 C4'	12.226	-2.788	10.636	C.3	1	SAM1	0.000	
11	 O4'	11.123	-2.121	10.026	O.3	1	SAM1	0.000	
12	 C3'	12.408	-4.096	9.872	C.3	1	SAM1	0.000	
13	 O3'	12.008	-5.214	10.702	O.3	1	SAM1	0.000	
14	 C2'	11.529	-3.980	8.654	C.3	1	SAM1	0.000	
15	 O2'	11.096	-5.296	8.210	O.3	1	SAM1	0.000	
16	 C1'	10.440	-3.064	9.150	C.3	1	SAM1	0.000	
17	 OXT	14.206	-0.867	16.870	O.co2	1	SAM1	0.000	
18	  N1	5.945	-0.952	7.680	N.2	1	SAM1	0.000	
19	  C2	6.214	-1.864	8.612	C.2	1	SAM1	0.000	
20	  N3	7.422	-2.348	8.903	N.2	1	SAM1	0.000	
21	  C4	8.484	-1.934	8.179	C.2	1	SAM1	0.000	
22	  C5	8.290	-0.951	7.143	C.2	1	SAM1	0.000	
23	  C6	6.938	-0.454	6.906	C.2	1	SAM1	0.000	
24	  N6	6.700	0.423	5.938	N.pl3	1	SAM1	0.000	
25	  N7	9.491	-0.726	6.554	N.2	1	SAM1	0.000	
26	  C8	10.386	-1.457	7.220	C.2	1	SAM1	0.000	
27	  N9	9.772	-2.196	8.174	N.2	1	SAM1	0.000	
28	  HA	12.585	-3.313	16.042	 H	1	SAM1	0.000	
29	 HB1	12.608	-3.377	13.624	 H	1	SAM1	0.000	
30	 HB2	14.186	-3.834	14.309	 H	1	SAM1	0.000	
31	 HG1	15.089	-1.631	13.762	 H	1	SAM1	0.000	
32	 HG2	13.504	-1.116	13.139	 H	1	SAM1	0.000	
33	 HE1	16.870	-2.119	11.993	 H	1	SAM1	0.000	
34	 HE2	16.021	-0.674	11.391	 H	1	SAM1	0.000	
35	 HE3	16.378	-2.023	10.285	 H	1	SAM1	0.000	
36	  H1	12.429	-0.611	14.981	 H	1	SAM1	0.000	
37	  H2	11.757	-1.153	16.386	 H	1	SAM1	0.000	
38	  H2	5.380	-2.246	9.183	 H	1	SAM1	0.000	
39	  H3	11.238	-1.751	14.940	 H	1	SAM1	0.000	
40	  H8	11.448	-1.459	7.026	 H	1	SAM1	0.000	
41	 H1'	9.673	-3.721	9.560	 H	1	SAM1	0.000	
42	 H2'	12.000	-3.577	7.757	 H	1	SAM1	0.000	
43	 H2'	11.877	-5.781	7.933	 H	1	SAM1	0.000	
44	 H3'	13.447	-4.269	9.591	 H	1	SAM1	0.000	
45	 H3'	12.105	-6.013	10.179	 H	1	SAM1	0.000	
46	 H4'	12.047	-3.005	11.689	 H	1	SAM1	0.000	
47	 H61	7.458	0.752	5.358	 H	1	SAM1	0.000	
48	 H62	5.761	0.761	5.782	 H	1	SAM1	0.000	
49	H5'1	13.883	-1.882	9.620	 H	1	SAM1	0.000	
50	H5'2	13.181	-0.889	10.919	 H	1	SAM1	0.000	
@<TRIPOS>BOND
1 1 2 1
2 1 36 1
3 1 37 1
4 1 39 1
5 2 3 1
6 2 5 1
7 2 28 1
8 3 4 ar
9 3 17 ar
10 5 6 1
11 5 29 1
12 5 30 1
13 6 7 1
14 6 31 1
15 6 32 1
16 7 8 1
17 7 9 1
18 8 33 1
19 8 34 1
20 8 35 1
21 9 10 1
22 9 49 1
23 9 50 1
24 10 11 1
25 10 12 1
26 10 46 1
27 11 16 1
28 12 13 1
29 12 14 1
30 12 44 1
31 13 45 1
32 14 15 1
33 14 16 1
34 14 42 1
35 15 43 1
36 16 27 1
37 16 41 1
38 18 19 ar
39 18 23 ar
40 19 20 ar
41 19 38 1
42 20 21 ar
43 21 22 ar
44 21 27 ar
45 22 23 ar
46 22 25 ar
47 23 24 1
48 24 47 1
49 24 48 1
50 25 26 ar
51 26 27 ar
52 26 40 1
@<TRIPOS>SUBSTRUCTURE
1	SAM1	1	GROUP	1 A	SAM
