# created with PyMOL 2.4.0
@<TRIPOS>MOLECULE
temp
50 52 1                 
SMALL
USER_CHARGES
@<TRIPOS>ATOM
1	   N	3.723	35.735	8.699	N.4	1	SAM1	0.000	
2	  CA	4.517	36.634	9.603	C.3	1	SAM1	0.000	
3	   C	3.740	36.987	10.872	C.2	1	SAM1	0.000	
4	   O	2.524	36.792	10.899	O.co2	1	SAM1	0.000	
5	  CB	4.917	37.901	8.836	C.3	1	SAM1	0.000	
6	  CG	5.970	37.522	7.796	C.3	1	SAM1	0.000	
7	  SD	6.870	38.908	7.074	S.3	1	SAM1	0.000	
8	  CE	5.536	39.599	6.083	C.3	1	SAM1	0.000	
9	 C5'	7.893	38.097	5.817	C.3	1	SAM1	0.000	
10	 C4'	9.128	37.455	6.450	C.3	1	SAM1	0.000	
11	 O4'	9.756	36.635	5.461	O.3	1	SAM1	0.000	
12	 C3'	10.210	38.441	6.956	C.3	1	SAM1	0.000	
13	 O3'	10.313	38.406	8.363	O.3	1	SAM1	0.000	
14	 C2'	11.504	37.955	6.286	C.3	1	SAM1	0.000	
15	 O2'	12.678	37.969	7.091	O.3	1	SAM1	0.000	
16	 C1'	11.125	36.547	5.864	C.3	1	SAM1	0.000	
17	 OXT	4.285	37.436	11.888	O.co2	1	SAM1	0.000	
18	  N1	13.889	32.408	4.513	N.2	1	SAM1	0.000	
19	  C2	13.264	32.655	5.722	C.2	1	SAM1	0.000	
20	  N3	12.563	33.835	5.886	N.2	1	SAM1	0.000	
21	  C4	12.521	34.748	4.873	C.2	1	SAM1	0.000	
22	  C5	13.139	34.516	3.650	C.2	1	SAM1	0.000	
23	  C6	13.833	33.316	3.486	C.2	1	SAM1	0.000	
24	  N6	14.444	33.025	2.346	N.pl3	1	SAM1	0.000	
25	  N7	12.906	35.577	2.834	N.2	1	SAM1	0.000	
26	  C8	12.156	36.468	3.516	C.2	1	SAM1	0.000	
27	  N9	11.918	35.966	4.779	N.2	1	SAM1	0.000	
28	  HA	5.416	36.104	9.918	 H	1	SAM1	0.000	
29	 HB1	5.330	38.635	9.528	 H	1	SAM1	0.000	
30	 HB2	4.043	38.322	8.339	 H	1	SAM1	0.000	
31	 HG1	5.469	36.988	6.989	 H	1	SAM1	0.000	
32	 HG2	6.694	36.862	8.274	 H	1	SAM1	0.000	
33	 HE1	4.836	40.125	6.732	 H	1	SAM1	0.000	
34	 HE2	5.016	38.795	5.563	 H	1	SAM1	0.000	
35	 HE3	5.949	40.296	5.354	 H	1	SAM1	0.000	
36	  H1	2.886	36.214	8.399	 H	1	SAM1	0.000	
37	  H2	3.469	34.895	9.198	 H	1	SAM1	0.000	
38	  H2	13.323	31.936	6.526	 H	1	SAM1	0.000	
39	  H3	4.280	35.492	7.892	 H	1	SAM1	0.000	
40	  H8	11.802	37.415	3.137	 H	1	SAM1	0.000	
41	 H1'	11.312	35.879	6.705	 H	1	SAM1	0.000	
42	 H2'	11.802	38.625	5.480	 H	1	SAM1	0.000	
43	 H2'	12.830	38.876	7.367	 H	1	SAM1	0.000	
44	 H3'	9.980	39.477	6.708	 H	1	SAM1	0.000	
45	 H3'	11.018	39.006	8.618	 H	1	SAM1	0.000	
46	 H4'	8.759	36.915	7.321	 H	1	SAM1	0.000	
47	 H61	14.413	33.677	1.576	 H	1	SAM1	0.000	
48	 H62	14.941	32.151	2.248	 H	1	SAM1	0.000	
49	H5'1	8.212	38.838	5.084	 H	1	SAM1	0.000	
50	H5'2	7.304	37.325	5.321	 H	1	SAM1	0.000	
@<TRIPOS>BOND
1 1 2 1
2 1 36 1
3 1 37 1
4 1 39 1
5 2 3 1
6 2 5 1
7 2 28 1
8 3 4 ar
9 3 17 ar
10 5 6 1
11 5 29 1
12 5 30 1
13 6 7 1
14 6 31 1
15 6 32 1
16 7 8 1
17 7 9 1
18 8 33 1
19 8 34 1
20 8 35 1
21 9 10 1
22 9 49 1
23 9 50 1
24 10 11 1
25 10 12 1
26 10 46 1
27 11 16 1
28 12 13 1
29 12 14 1
30 12 44 1
31 13 45 1
32 14 15 1
33 14 16 1
34 14 42 1
35 15 43 1
36 16 27 1
37 16 41 1
38 18 19 ar
39 18 23 ar
40 19 20 ar
41 19 38 1
42 20 21 ar
43 21 22 ar
44 21 27 ar
45 22 23 ar
46 22 25 ar
47 23 24 1
48 24 47 1
49 24 48 1
50 25 26 ar
51 26 27 ar
52 26 40 1
@<TRIPOS>SUBSTRUCTURE
1	SAM1	1	GROUP	1 A	SAM
