# created with PyMOL 2.5.0
@<TRIPOS>MOLECULE
2PLW
27 29 1                 
SMALL
USER_CHARGES
@<TRIPOS>ATOM
1	   N	3.723	35.735	8.699	N.3	1	SAM203	0.000	
2	  CA	4.517	36.634	9.603	C.3	1	SAM203	0.000	
3	   C	3.740	36.987	10.872	C.2	1	SAM203	0.000	
4	   O	2.524	36.792	10.899	O.co2	1	SAM203	0.000	
5	  CB	4.917	37.901	8.836	C.3	1	SAM203	0.000	
6	  CG	5.970	37.522	7.796	C.3	1	SAM203	0.000	
7	  SD	6.870	38.908	7.074	S.3	1	SAM203	0.000	
8	  CE	5.536	39.599	6.083	C.3	1	SAM203	0.000	
9	 C5'	7.893	38.097	5.817	C.3	1	SAM203	0.000	
10	 C4'	9.128	37.455	6.450	C.3	1	SAM203	0.000	
11	 O4'	9.756	36.635	5.461	O.3	1	SAM203	0.000	
12	 C3'	10.210	38.441	6.956	C.3	1	SAM203	0.000	
13	 O3'	10.313	38.406	8.363	O.3	1	SAM203	0.000	
14	 C2'	11.504	37.955	6.286	C.3	1	SAM203	0.000	
15	 O2'	12.678	37.969	7.091	O.3	1	SAM203	0.000	
16	 C1'	11.125	36.547	5.864	C.3	1	SAM203	0.000	
17	 OXT	4.285	37.436	11.888	O.co2	1	SAM203	0.000	
18	  N1	13.889	32.408	4.513	N.2	1	SAM203	0.000	
19	  C2	13.264	32.655	5.722	C.2	1	SAM203	0.000	
20	  N3	12.563	33.835	5.886	N.2	1	SAM203	0.000	
21	  C4	12.521	34.748	4.873	C.2	1	SAM203	0.000	
22	  C5	13.139	34.516	3.650	C.2	1	SAM203	0.000	
23	  C6	13.833	33.316	3.486	C.2	1	SAM203	0.000	
24	  N6	14.444	33.025	2.346	N.pl3	1	SAM203	0.000	
25	  N7	12.906	35.577	2.834	N.2	1	SAM203	0.000	
26	  C8	12.156	36.468	3.516	C.2	1	SAM203	0.000	
27	  N9	11.918	35.966	4.779	N.2	1	SAM203	0.000	
@<TRIPOS>BOND
1 1 2 1
2 2 3 1
3 2 5 1
4 3 4 ar
5 3 17 ar
6 5 6 1
7 6 7 1
8 7 8 1
9 7 9 1
10 9 10 1
11 10 11 1
12 10 12 1
13 11 16 1
14 12 13 1
15 12 14 1
16 14 15 1
17 14 16 1
18 16 27 1
19 18 19 ar
20 18 23 ar
21 19 20 ar
22 20 21 ar
23 21 22 ar
24 21 27 ar
25 22 23 ar
26 22 25 ar
27 23 24 1
28 25 26 ar
29 26 27 ar
@<TRIPOS>SUBSTRUCTURE
1	SAM203	1	GROUP	1 A	SAM
