@<TRIPOS>MOLECULE
2PLW.A
51 53 1 0 0 
SMALL
USER_CHARGES


@<TRIPOS>ATOM
  1 N        3.7230    35.7350     8.6990 N.4   1 SAM  -0.8530 
  2 H1       2.8860    36.2139     8.3986 H     1 SAM   0.4500 
  3 H2       3.4692    34.8946     9.1983 H     1 SAM   0.4500 
  4 H3       4.2798    35.4920     7.8922 H     1 SAM   0.4500 
  5 CA       4.5170    36.6340     9.6030 C.3   1 SAM   0.3170 
  6 HA       5.4156    36.1035     9.9180 H     1 SAM   0.0800 
  7 C        3.7400    36.9870    10.8720 C.2   1 SAM   0.9060 
  8 O        2.5240    36.7920    10.8990 O.co2 1 SAM  -0.9000 
  9 CB       4.9170    37.9010     8.8360 C.3   1 SAM  -0.1600 
 10 HB1      5.3301    38.6352     9.5277 H     1 SAM   0.0800 
 11 HB2      4.0431    38.3218     8.3388 H     1 SAM   0.0800 
 12 CG       5.9700    37.5220     7.7960 C.3   1 SAM  -0.1525 
 13 HG1      5.4694    36.9877     6.9885 H     1 SAM   0.0800 
 14 HG2      6.6940    36.8622     8.2742 H     1 SAM   0.0800 
 15 SD       6.8700    38.9080     7.0740 S.3   1 SAM   0.9775 
 16 CE       5.5360    39.5990     6.0830 C.3   1 SAM  -0.2325 
 17 HE1      4.8358    40.1247     6.7322 H     1 SAM   0.0800 
 18 HE2      5.0156    38.7948     5.5629 H     1 SAM   0.0800 
 19 HE3      5.9487    40.2961     5.3537 H     1 SAM   0.0800 
 20 C5'      7.8930    38.0970     5.8170 C.3   1 SAM  -0.1525 
 21 H5'1     8.2120    38.8380     5.0840 H     1 SAM   0.0800 
 22 H5'2     7.3042    37.3254     5.3210 H     1 SAM   0.0800 
 23 C4'      9.1280    37.4550     6.4500 C.3   1 SAM   0.2000 
 24 H4'      8.7587    36.9145     7.3215 H     1 SAM   0.0800 
 25 O4'      9.7560    36.6350     5.4610 O.3   1 SAM  -0.5600 
 26 C3'     10.2100    38.4410     6.9560 C.3   1 SAM   0.2000 
 27 H3'      9.9802    39.4772     6.7079 H     1 SAM   0.0800 
 28 O3'     10.3130    38.4060     8.3630 O.3   1 SAM  -0.6800 
 29 H3'     11.0179    39.0060     8.6175 H     1 SAM   0.4000 
 30 C2'     11.5040    37.9550     6.2860 C.3   1 SAM   0.2000 
 31 H2'     11.8020    38.6251     5.4796 H     1 SAM   0.0800 
 32 O2'     12.6780    37.9690     7.0910 O.3   1 SAM  -0.6800 
 33 H2'     12.5192    37.3975     7.8458 H     1 SAM   0.4000 
 34 C1'     11.1250    36.5470     5.8640 C.3   1 SAM   0.5691 
 35 H1'     11.3125    35.8787     6.7045 H     1 SAM   0.0800 
 36 OXT      4.2850    37.4360    11.8880 O.co2 1 SAM  -0.9000 
 37 N1      13.8890    32.4080     4.5130 N.2   1 SAM  -0.6610 
 38 C2      13.2640    32.6550     5.7220 C.2   1 SAM   0.6010 
 39 H2      13.3229    31.9364     6.5261 H     1 SAM   0.0600 
 40 N3      12.5630    33.8350     5.8860 N.2   1 SAM  -0.6610 
 41 C4      12.5210    34.7480     4.8730 C.2   1 SAM   0.5000 
 42 C5      13.1390    34.5160     3.6500 C.2   1 SAM   0.4500 
 43 C6      13.8330    33.3160     3.4860 C.2   1 SAM   0.6110 
 44 N6      14.4440    33.0250     2.3460 N.2   1 SAM  -0.2000 
 45 H62     14.9408    32.1511     2.2480 H     1 SAM   0.4000 
 46 H61     14.4127    33.6772     1.5755 H     1 SAM   0.4000 
 47 N7      12.9060    35.5770     2.8340 N.2   1 SAM  -0.6960 
 48 C8      12.1560    36.4680     3.5160 C.3   1 SAM   0.4551 
 49 H81     11.2096    36.6242     2.9983 H     1 SAM   0.0800 
 50 H82     12.6894    37.4156     3.5917 H     1 SAM   0.0800 
 51 N9      11.9180    35.9660     4.7790 N.pl3 1 SAM  -0.7882 
@<TRIPOS>BOND
  1   1   2  1   
  2   1   3  1   
  3   1   4  1   
  4   1   5  1   
  5   5   6  1   
  6   5   7  1   
  7   5   9  1   
  8   7   8  ar  
  9   7  36  ar  
 10   9  10  1   
 11   9  11  1   
 12   9  12  1   
 13  12  13  1   
 14  12  14  1   
 15  12  15  1   
 16  15  16  1   
 17  15  20  1   
 18  16  17  1   
 19  16  18  1   
 20  16  19  1   
 21  20  21  1   
 22  20  22  1   
 23  20  23  1   
 24  23  24  1   
 25  23  25  1   
 26  23  26  1   
 27  25  34  1   
 28  26  27  1   
 29  26  28  1   
 30  26  30  1   
 31  28  29  1   
 32  30  31  1   
 33  30  32  1   
 34  30  34  1   
 35  32  33  1   
 36  34  35  1   
 37  34  51  1   
 38  37  38  2   
 39  37  43  1   
 40  38  39  1   
 41  38  40  1   
 42  40  41  2   
 43  41  42  1   
 44  41  51  1   
 45  42  43  1   
 46  42  47  2   
 47  43  44  2   
 48  44  45  1   
 49  44  46  1   
 50  47  48  1   
 51  48  49  1   
 52  48  50  1   
 53  48  51  1   
@<TRIPOS>SUBSTRUCTURE
  1 SAM  25 GROUP 4 A **** 0

# MOE 2022.02 (io_trps.svl 2020.11)
