# created with PyMOL 2.4.0
@<TRIPOS>MOLECULE
temp
50 52 1                 
SMALL
USER_CHARGES
@<TRIPOS>ATOM
1	   N	20.234	90.111	0.785	N.4	1	SAM1	0.000	
2	  CA	20.835	91.235	0.070	C.3	1	SAM1	0.000	
3	   C	20.905	90.957	-1.417	C.2	1	SAM1	0.000	
4	   O	20.961	89.767	-1.786	O.co2	1	SAM1	0.000	
5	  CB	22.213	91.539	0.657	C.3	1	SAM1	0.000	
6	  CG	23.287	90.481	0.469	C.3	1	SAM1	0.000	
7	  SD	24.945	90.978	1.007	S.3	1	SAM1	0.000	
8	  CE	25.947	89.809	0.068	C.3	1	SAM1	0.000	
9	 C5'	25.001	90.213	2.663	C.3	1	SAM1	0.000	
10	 C4'	24.172	90.978	3.680	C.3	1	SAM1	0.000	
11	 O4'	23.995	90.189	4.851	O.3	1	SAM1	0.000	
12	 C3'	24.865	92.270	4.102	C.3	1	SAM1	0.000	
13	 O3'	23.980	93.390	3.986	O.3	1	SAM1	0.000	
14	 C2'	25.295	91.973	5.524	C.3	1	SAM1	0.000	
15	 O2'	25.434	93.128	6.349	O.3	1	SAM1	0.000	
16	 C1'	24.211	91.005	5.982	C.3	1	SAM1	0.000	
17	 OXT	20.870	91.883	-2.258	O.co2	1	SAM1	0.000	
18	  N1	23.543	90.128	10.967	N.2	1	SAM1	0.000	
19	  C2	22.816	90.958	10.129	C.2	1	SAM1	0.000	
20	  N3	23.156	91.056	8.808	N.2	1	SAM1	0.000	
21	  C4	24.177	90.303	8.360	C.2	1	SAM1	0.000	
22	  C5	24.909	89.436	9.178	C.2	1	SAM1	0.000	
23	  C6	24.569	89.327	10.512	C.2	1	SAM1	0.000	
24	  N6	25.266	88.527	11.351	N.pl3	1	SAM1	0.000	
25	  N7	25.819	88.812	8.412	N.2	1	SAM1	0.000	
26	  C8	25.703	89.318	7.160	C.2	1	SAM1	0.000	
27	  N9	24.692	90.230	7.132	N.2	1	SAM1	0.000	
28	  HA	20.207	92.117	0.197	 H	1	SAM1	0.000	
29	 HB1	22.088	91.695	1.729	 H	1	SAM1	0.000	
30	 HB2	22.572	92.459	0.196	 H	1	SAM1	0.000	
31	 HG1	23.335	90.231	-0.591	 H	1	SAM1	0.000	
32	 HG2	22.996	89.598	1.038	 H	1	SAM1	0.000	
33	 HE1	26.010	90.136	-0.970	 H	1	SAM1	0.000	
34	 HE2	25.488	88.821	0.110	 H	1	SAM1	0.000	
35	 HE3	26.948	89.763	0.496	 H	1	SAM1	0.000	
36	  H1	20.812	89.291	0.670	 H	1	SAM1	0.000	
37	  H2	19.313	89.928	0.412	 H	1	SAM1	0.000	
38	  H2	21.983	91.526	10.518	 H	1	SAM1	0.000	
39	  H3	20.161	90.337	1.767	 H	1	SAM1	0.000	
40	  H8	26.317	89.041	6.316	 H	1	SAM1	0.000	
41	 H1'	23.294	91.493	6.312	 H	1	SAM1	0.000	
42	 H2'	26.301	91.558	5.591	 H	1	SAM1	0.000	
43	 H2'	24.587	93.580	6.361	 H	1	SAM1	0.000	
44	 H3'	25.713	92.551	3.477	 H	1	SAM1	0.000	
45	 H3'	24.447	94.164	4.309	 H	1	SAM1	0.000	
46	 H4'	23.216	91.209	3.211	 H	1	SAM1	0.000	
47	 H61	26.052	87.995	11.005	 H	1	SAM1	0.000	
48	 H62	25.001	88.462	12.323	 H	1	SAM1	0.000	
49	H5'1	26.036	90.188	3.003	 H	1	SAM1	0.000	
50	H5'2	24.617	89.195	2.592	 H	1	SAM1	0.000	
@<TRIPOS>BOND
1 1 2 1
2 1 36 1
3 1 37 1
4 1 39 1
5 2 3 1
6 2 5 1
7 2 28 1
8 3 4 ar
9 3 17 ar
10 5 6 1
11 5 29 1
12 5 30 1
13 6 7 1
14 6 31 1
15 6 32 1
16 7 8 1
17 7 9 1
18 8 33 1
19 8 34 1
20 8 35 1
21 9 10 1
22 9 49 1
23 9 50 1
24 10 11 1
25 10 12 1
26 10 46 1
27 11 16 1
28 12 13 1
29 12 14 1
30 12 44 1
31 13 45 1
32 14 15 1
33 14 16 1
34 14 42 1
35 15 43 1
36 16 27 1
37 16 41 1
38 18 19 ar
39 18 23 ar
40 19 20 ar
41 19 38 1
42 20 21 ar
43 21 22 ar
44 21 27 ar
45 22 23 ar
46 22 25 ar
47 23 24 1
48 24 47 1
49 24 48 1
50 25 26 ar
51 26 27 ar
52 26 40 1
@<TRIPOS>SUBSTRUCTURE
1	SAM1	1	GROUP	1 A	SAM
