@<TRIPOS>MOLECULE
1RJD.A
51 53 1 0 0 
SMALL
USER_CHARGES


@<TRIPOS>ATOM
  1 N       20.2340    90.1110     0.7850 N.4   1 SAM  -0.8530 
  2 H1      20.8124    89.2910     0.6702 H     1 SAM   0.4500 
  3 H2      19.3133    89.9284     0.4122 H     1 SAM   0.4500 
  4 H3      20.1610    90.3368     1.7667 H     1 SAM   0.4500 
  5 CA      20.8350    91.2350     0.0700 C.3   1 SAM   0.3170 
  6 HA      20.2072    92.1169     0.1971 H     1 SAM   0.0800 
  7 C       20.9050    90.9570    -1.4170 C.2   1 SAM   0.9060 
  8 O       20.9610    89.7670    -1.7860 O.co2 1 SAM  -0.9000 
  9 CB      22.2130    91.5390     0.6570 C.3   1 SAM  -0.1600 
 10 HB1     22.0878    91.6948     1.7285 H     1 SAM   0.0800 
 11 HB2     22.5722    92.4589     0.1956 H     1 SAM   0.0800 
 12 CG      23.2870    90.4810     0.4690 C.3   1 SAM  -0.1525 
 13 HG1     23.3350    90.2310    -0.5909 H     1 SAM   0.0800 
 14 HG2     22.9963    89.5978     1.0378 H     1 SAM   0.0800 
 15 SD      24.9450    90.9780     1.0070 S.3   1 SAM   0.9775 
 16 CE      25.9470    89.8090     0.0680 C.3   1 SAM  -0.2325 
 17 HE1     26.0101    90.1362    -0.9698 H     1 SAM   0.0800 
 18 HE2     25.4881    88.8212     0.1103 H     1 SAM   0.0800 
 19 HE3     26.9484    89.7630     0.4960 H     1 SAM   0.0800 
 20 C5'     25.0010    90.2130     2.6630 C.3   1 SAM  -0.1525 
 21 H5'1    26.0364    90.1878     3.0026 H     1 SAM   0.0800 
 22 H5'2    24.6170    89.1953     2.5921 H     1 SAM   0.0800 
 23 C4'     24.1720    90.9780     3.6800 C.3   1 SAM   0.2000 
 24 H4'     23.2157    91.2087     3.2106 H     1 SAM   0.0800 
 25 O4'     23.9950    90.1890     4.8510 O.3   1 SAM  -0.5600 
 26 C3'     24.8650    92.2700     4.1020 C.3   1 SAM   0.2000 
 27 H3'     25.7129    92.5506     3.4771 H     1 SAM   0.0800 
 28 O3'     23.9800    93.3900     3.9860 O.3   1 SAM  -0.6800 
 29 H3'     24.4472    94.1638     4.3092 H     1 SAM   0.4000 
 30 C2'     25.2950    91.9730     5.5240 C.3   1 SAM   0.2000 
 31 H2'     26.3006    91.5578     5.5907 H     1 SAM   0.0800 
 32 O2'     25.4340    93.1280     6.3490 O.3   1 SAM  -0.6800 
 33 H2'     25.6824    92.8294     7.2269 H     1 SAM   0.4000 
 34 C1'     24.2110    91.0050     5.9820 C.3   1 SAM   0.5691 
 35 H1'     23.2936    91.4926     6.3118 H     1 SAM   0.0800 
 36 OXT     20.8700    91.8830    -2.2580 O.co2 1 SAM  -0.9000 
 37 N1      23.5430    90.1280    10.9670 N.2   1 SAM  -0.6610 
 38 C2      22.8160    90.9580    10.1290 C.2   1 SAM   0.6010 
 39 H2      21.9835    91.5257    10.5177 H     1 SAM   0.0600 
 40 N3      23.1560    91.0560     8.8080 N.2   1 SAM  -0.6610 
 41 C4      24.1770    90.3030     8.3600 C.2   1 SAM   0.5000 
 42 C5      24.9090    89.4360     9.1780 C.2   1 SAM   0.4500 
 43 C6      24.5690    89.3270    10.5120 C.2   1 SAM   0.6110 
 44 N6      25.2660    88.5270    11.3510 N.2   1 SAM  -0.2000 
 45 H62     25.0006    88.4616    12.3233 H     1 SAM   0.4000 
 46 H61     26.0518    87.9950    11.0051 H     1 SAM   0.4000 
 47 N7      25.8190    88.8120     8.4120 N.2   1 SAM  -0.6960 
 48 C8      25.7030    89.3180     7.1600 C.3   1 SAM   0.4551 
 49 H81     25.4842    88.5111     6.4606 H     1 SAM   0.0800 
 50 H82     26.6373    89.8021     6.8755 H     1 SAM   0.0800 
 51 N9      24.6920    90.2300     7.1320 N.pl3 1 SAM  -0.7882 
@<TRIPOS>BOND
  1   1   2  1   
  2   1   3  1   
  3   1   4  1   
  4   1   5  1   
  5   5   6  1   
  6   5   7  1   
  7   5   9  1   
  8   7   8  ar  
  9   7  36  ar  
 10   9  10  1   
 11   9  11  1   
 12   9  12  1   
 13  12  13  1   
 14  12  14  1   
 15  12  15  1   
 16  15  16  1   
 17  15  20  1   
 18  16  17  1   
 19  16  18  1   
 20  16  19  1   
 21  20  21  1   
 22  20  22  1   
 23  20  23  1   
 24  23  24  1   
 25  23  25  1   
 26  23  26  1   
 27  25  34  1   
 28  26  27  1   
 29  26  28  1   
 30  26  30  1   
 31  28  29  1   
 32  30  31  1   
 33  30  32  1   
 34  30  34  1   
 35  32  33  1   
 36  34  35  1   
 37  34  51  1   
 38  37  38  2   
 39  37  43  1   
 40  38  39  1   
 41  38  40  1   
 42  40  41  2   
 43  41  42  1   
 44  41  51  1   
 45  42  43  1   
 46  42  47  2   
 47  43  44  2   
 48  44  45  1   
 49  44  46  1   
 50  47  48  1   
 51  48  49  1   
 52  48  50  1   
 53  48  51  1   
@<TRIPOS>SUBSTRUCTURE
  1 SAM  25 GROUP 4 A **** 0

# MOE 2022.02 (io_trps.svl 2020.11)
