# created with PyMOL 2.5.0
@<TRIPOS>MOLECULE
1RJD
27 29 1                 
SMALL
USER_CHARGES
@<TRIPOS>ATOM
1	   N	20.234	90.111	0.785	N.3	1	SAM801	0.000	
2	  CA	20.835	91.235	0.070	C.3	1	SAM801	0.000	
3	   C	20.905	90.957	-1.417	C.2	1	SAM801	0.000	
4	   O	20.961	89.767	-1.786	O.co2	1	SAM801	0.000	
5	  CB	22.213	91.539	0.657	C.3	1	SAM801	0.000	
6	  CG	23.287	90.481	0.469	C.3	1	SAM801	0.000	
7	  SD	24.945	90.978	1.007	S.3	1	SAM801	0.000	
8	  CE	25.947	89.809	0.068	C.3	1	SAM801	0.000	
9	 C5'	25.001	90.213	2.663	C.3	1	SAM801	0.000	
10	 C4'	24.172	90.978	3.680	C.3	1	SAM801	0.000	
11	 O4'	23.995	90.189	4.851	O.3	1	SAM801	0.000	
12	 C3'	24.865	92.270	4.102	C.3	1	SAM801	0.000	
13	 O3'	23.980	93.390	3.986	O.3	1	SAM801	0.000	
14	 C2'	25.295	91.973	5.524	C.3	1	SAM801	0.000	
15	 O2'	25.434	93.128	6.349	O.3	1	SAM801	0.000	
16	 C1'	24.211	91.005	5.982	C.3	1	SAM801	0.000	
17	 OXT	20.870	91.883	-2.258	O.co2	1	SAM801	0.000	
18	  N1	23.543	90.128	10.967	N.2	1	SAM801	0.000	
19	  C2	22.816	90.958	10.129	C.2	1	SAM801	0.000	
20	  N3	23.156	91.056	8.808	N.2	1	SAM801	0.000	
21	  C4	24.177	90.303	8.360	C.2	1	SAM801	0.000	
22	  C5	24.909	89.436	9.178	C.2	1	SAM801	0.000	
23	  C6	24.569	89.327	10.512	C.2	1	SAM801	0.000	
24	  N6	25.266	88.527	11.351	N.pl3	1	SAM801	0.000	
25	  N7	25.819	88.812	8.412	N.2	1	SAM801	0.000	
26	  C8	25.703	89.318	7.160	C.2	1	SAM801	0.000	
27	  N9	24.692	90.230	7.132	N.2	1	SAM801	0.000	
@<TRIPOS>BOND
1 1 2 1
2 2 3 1
3 2 5 1
4 3 4 ar
5 3 17 ar
6 5 6 1
7 6 7 1
8 7 8 1
9 7 9 1
10 9 10 1
11 10 11 1
12 10 12 1
13 11 16 1
14 12 13 1
15 12 14 1
16 14 15 1
17 14 16 1
18 16 27 1
19 18 19 ar
20 18 23 ar
21 19 20 ar
22 20 21 ar
23 21 22 ar
24 21 27 ar
25 22 23 ar
26 22 25 ar
27 23 24 1
28 25 26 ar
29 26 27 ar
@<TRIPOS>SUBSTRUCTURE
1	SAM801	1	GROUP	1 A	SAM
