# created with PyMOL 2.4.0
@<TRIPOS>MOLECULE
temp
50 52 1                 
SMALL
USER_CHARGES
@<TRIPOS>ATOM
1	   N	20.049	-3.535	64.951	N.4	1	SAM1	0.000	
2	  CA	19.919	-2.100	64.918	C.3	1	SAM1	0.000	
3	   C	18.958	-1.537	63.793	C.2	1	SAM1	0.000	
4	   O	18.696	-0.344	63.767	O.co2	1	SAM1	0.000	
5	  CB	21.326	-1.506	64.774	C.3	1	SAM1	0.000	
6	  CG	21.947	-1.606	63.370	C.3	1	SAM1	0.000	
7	  SD	23.544	-0.926	63.120	S.3	1	SAM1	0.000	
8	  CE	23.996	-1.149	61.428	C.3	1	SAM1	0.000	
9	 C5'	24.861	-1.952	63.715	C.3	1	SAM1	0.000	
10	 C4'	25.112	-2.125	65.205	C.3	1	SAM1	0.000	
11	 O4'	25.907	-3.216	65.643	O.3	1	SAM1	0.000	
12	 C3'	25.705	-0.933	65.776	C.3	1	SAM1	0.000	
13	 O3'	24.957	-0.505	66.818	O.3	1	SAM1	0.000	
14	 C2'	27.134	-1.379	66.104	C.3	1	SAM1	0.000	
15	 O2'	27.657	-0.685	67.086	O.3	1	SAM1	0.000	
16	 C1'	26.895	-2.820	66.451	C.3	1	SAM1	0.000	
17	 OXT	18.543	-2.385	63.008	O.co2	1	SAM1	0.000	
18	  N1	29.355	-6.563	68.827	N.2	1	SAM1	0.000	
19	  C2	28.319	-5.847	69.205	C.2	1	SAM1	0.000	
20	  N3	27.839	-4.924	68.437	N.2	1	SAM1	0.000	
21	  C4	28.305	-4.614	67.252	C.2	1	SAM1	0.000	
22	  C5	29.401	-5.310	66.756	C.2	1	SAM1	0.000	
23	  C6	29.923	-6.329	67.625	C.2	1	SAM1	0.000	
24	  N6	30.871	-6.984	67.288	N.pl3	1	SAM1	0.000	
25	  N7	29.695	-4.810	65.514	N.2	1	SAM1	0.000	
26	  C8	28.815	-3.857	65.273	C.2	1	SAM1	0.000	
27	  N9	27.959	-3.732	66.342	N.2	1	SAM1	0.000	
28	  HA	19.441	-1.798	65.850	 H	1	SAM1	0.000	
29	 HB1	21.983	-2.027	65.470	 H	1	SAM1	0.000	
30	 HB2	21.274	-0.451	65.044	 H	1	SAM1	0.000	
31	 HG1	21.270	-1.102	62.680	 H	1	SAM1	0.000	
32	 HG2	22.003	-2.664	63.116	 H	1	SAM1	0.000	
33	 HE1	23.309	-0.591	60.792	 H	1	SAM1	0.000	
34	 HE2	23.947	-2.208	61.175	 H	1	SAM1	0.000	
35	 HE3	25.012	-0.785	61.272	 H	1	SAM1	0.000	
36	  H1	20.490	-3.853	64.100	 H	1	SAM1	0.000	
37	  H2	19.134	-3.954	65.033	 H	1	SAM1	0.000	
38	  H2	27.864	-6.032	70.167	 H	1	SAM1	0.000	
39	  H3	20.615	-3.804	65.743	 H	1	SAM1	0.000	
40	  H8	28.773	-3.264	64.371	 H	1	SAM1	0.000	
41	 H1'	26.688	-2.837	67.521	 H	1	SAM1	0.000	
42	 H2'	27.859	-1.233	65.303	 H	1	SAM1	0.000	
43	 H2'	27.727	0.226	66.792	 H	1	SAM1	0.000	
44	 H3'	25.738	-0.057	65.128	 H	1	SAM1	0.000	
45	 H3'	25.409	0.245	67.211	 H	1	SAM1	0.000	
46	 H4'	24.101	-2.336	65.553	 H	1	SAM1	0.000	
47	 H61	31.305	-6.820	66.391	 H	1	SAM1	0.000	
48	 H62	31.235	-7.699	67.902	 H	1	SAM1	0.000	
49	H5'1	25.781	-1.551	63.291	 H	1	SAM1	0.000	
50	H5'2	24.681	-2.950	63.314	 H	1	SAM1	0.000	
@<TRIPOS>BOND
1 1 2 1
2 1 36 1
3 1 37 1
4 1 39 1
5 2 3 1
6 2 5 1
7 2 28 1
8 3 4 ar
9 3 17 ar
10 5 6 1
11 5 29 1
12 5 30 1
13 6 7 1
14 6 31 1
15 6 32 1
16 7 8 1
17 7 9 1
18 8 33 1
19 8 34 1
20 8 35 1
21 9 10 1
22 9 49 1
23 9 50 1
24 10 11 1
25 10 12 1
26 10 46 1
27 11 16 1
28 12 13 1
29 12 14 1
30 12 44 1
31 13 45 1
32 14 15 1
33 14 16 1
34 14 42 1
35 15 43 1
36 16 27 1
37 16 41 1
38 18 19 ar
39 18 23 ar
40 19 20 ar
41 19 38 1
42 20 21 ar
43 21 22 ar
44 21 27 ar
45 22 23 ar
46 22 25 ar
47 23 24 1
48 24 47 1
49 24 48 1
50 25 26 ar
51 26 27 ar
52 26 40 1
@<TRIPOS>SUBSTRUCTURE
1	SAM1	1	GROUP	1 A	SAM
