# created with PyMOL 2.5.0
@<TRIPOS>MOLECULE
2YQZ
27 29 1                 
SMALL
USER_CHARGES
@<TRIPOS>ATOM
1	   N	20.049	-3.535	64.951	N.3	1	SAM301	0.000	
2	  CA	19.919	-2.100	64.918	C.3	1	SAM301	0.000	
3	   C	18.958	-1.537	63.793	C.2	1	SAM301	0.000	
4	   O	18.696	-0.344	63.767	O.co2	1	SAM301	0.000	
5	  CB	21.326	-1.506	64.774	C.3	1	SAM301	0.000	
6	  CG	21.947	-1.606	63.370	C.3	1	SAM301	0.000	
7	  SD	23.544	-0.926	63.120	S.3	1	SAM301	0.000	
8	  CE	23.996	-1.149	61.428	C.3	1	SAM301	0.000	
9	 C5'	24.861	-1.952	63.715	C.3	1	SAM301	0.000	
10	 C4'	25.112	-2.125	65.205	C.3	1	SAM301	0.000	
11	 O4'	25.907	-3.216	65.643	O.3	1	SAM301	0.000	
12	 C3'	25.705	-0.933	65.776	C.3	1	SAM301	0.000	
13	 O3'	24.957	-0.505	66.818	O.3	1	SAM301	0.000	
14	 C2'	27.134	-1.379	66.104	C.3	1	SAM301	0.000	
15	 O2'	27.657	-0.685	67.086	O.3	1	SAM301	0.000	
16	 C1'	26.895	-2.820	66.451	C.3	1	SAM301	0.000	
17	 OXT	18.543	-2.385	63.008	O.co2	1	SAM301	0.000	
18	  N1	29.355	-6.563	68.827	N.2	1	SAM301	0.000	
19	  C2	28.319	-5.847	69.205	C.2	1	SAM301	0.000	
20	  N3	27.839	-4.924	68.437	N.2	1	SAM301	0.000	
21	  C4	28.305	-4.614	67.252	C.2	1	SAM301	0.000	
22	  C5	29.401	-5.310	66.756	C.2	1	SAM301	0.000	
23	  C6	29.923	-6.329	67.625	C.2	1	SAM301	0.000	
24	  N6	30.871	-6.984	67.288	N.pl3	1	SAM301	0.000	
25	  N7	29.695	-4.810	65.514	N.2	1	SAM301	0.000	
26	  C8	28.815	-3.857	65.273	C.2	1	SAM301	0.000	
27	  N9	27.959	-3.732	66.342	N.2	1	SAM301	0.000	
@<TRIPOS>BOND
1 1 2 1
2 2 3 1
3 2 5 1
4 3 4 ar
5 3 17 ar
6 5 6 1
7 6 7 1
8 7 8 1
9 7 9 1
10 9 10 1
11 10 11 1
12 10 12 1
13 11 16 1
14 12 13 1
15 12 14 1
16 14 15 1
17 14 16 1
18 16 27 1
19 18 19 ar
20 18 23 ar
21 19 20 ar
22 20 21 ar
23 21 22 ar
24 21 27 ar
25 22 23 ar
26 22 25 ar
27 23 24 1
28 25 26 ar
29 26 27 ar
@<TRIPOS>SUBSTRUCTURE
1	SAM301	1	GROUP	1 A	SAM
