@<TRIPOS>MOLECULE
2YQZ.A
51 53 1 0 0 
SMALL
USER_CHARGES


@<TRIPOS>ATOM
  1 N       20.0490    -3.5350    64.9510 N.4   1 SAM  -0.8530 
  2 H1      20.4895    -3.8528    64.0995 H     1 SAM   0.4500 
  3 H2      19.1338    -3.9542    65.0334 H     1 SAM   0.4500 
  4 H3      20.6149    -3.8037    65.7433 H     1 SAM   0.4500 
  5 CA      19.9190    -2.1000    64.9180 C.3   1 SAM   0.3170 
  6 HA      19.4415    -1.7985    65.8503 H     1 SAM   0.0800 
  7 C       18.9580    -1.5370    63.7930 C.2   1 SAM   0.9060 
  8 O       18.6960    -0.3440    63.7670 O.co2 1 SAM  -0.9000 
  9 CB      21.3260    -1.5060    64.7740 C.3   1 SAM  -0.1600 
 10 HB1     21.9834    -2.0274    65.4698 H     1 SAM   0.0800 
 11 HB2     21.2744    -0.4512    65.0440 H     1 SAM   0.0800 
 12 CG      21.9470    -1.6060    63.3700 C.3   1 SAM  -0.1525 
 13 HG1     21.2697    -1.1023    62.6804 H     1 SAM   0.0800 
 14 HG2     22.0031    -2.6645    63.1160 H     1 SAM   0.0800 
 15 SD      23.5440    -0.9260    63.1200 S.3   1 SAM   0.9775 
 16 CE      23.9960    -1.1490    61.4280 C.3   1 SAM  -0.2325 
 17 HE1     23.3087    -0.5914    60.7918 H     1 SAM   0.0800 
 18 HE2     23.9468    -2.2082    61.1753 H     1 SAM   0.0800 
 19 HE3     25.0116    -0.7851    61.2722 H     1 SAM   0.0800 
 20 C5'     24.8610    -1.9520    63.7150 C.3   1 SAM  -0.1525 
 21 H5'1    25.7814    -1.5505    63.2910 H     1 SAM   0.0800 
 22 H5'2    24.6812    -2.9495    63.3139 H     1 SAM   0.0800 
 23 C4'     25.1120    -2.1250    65.2050 C.3   1 SAM   0.2000 
 24 H4'     24.1008    -2.3360    65.5531 H     1 SAM   0.0800 
 25 O4'     25.9070    -3.2160    65.6430 O.3   1 SAM  -0.5600 
 26 C3'     25.7050    -0.9330    65.7760 C.3   1 SAM   0.2000 
 27 H3'     25.7380    -0.0574    65.1276 H     1 SAM   0.0800 
 28 O3'     24.9570    -0.5050    66.8180 O.3   1 SAM  -0.6800 
 29 H3'     25.4093     0.2449    67.2113 H     1 SAM   0.4000 
 30 C2'     27.1340    -1.3790    66.1040 C.3   1 SAM   0.2000 
 31 H2'     27.8586    -1.2331    65.3029 H     1 SAM   0.0800 
 32 O2'     27.6570    -0.6850    67.0860 O.3   1 SAM  -0.6800 
 33 H2'     28.5212    -1.0572    67.2764 H     1 SAM   0.4000 
 34 C1'     26.8950    -2.8200    66.4510 C.3   1 SAM   0.5691 
 35 H1'     26.6878    -2.8372    67.5210 H     1 SAM   0.0800 
 36 OXT     18.5430    -2.3850    63.0080 O.co2 1 SAM  -0.9000 
 37 N1      29.3550    -6.5630    68.8270 N.2   1 SAM  -0.6610 
 38 C2      28.3190    -5.8470    69.2050 C.2   1 SAM   0.6010 
 39 H2      27.8642    -6.0317    70.1670 H     1 SAM   0.0600 
 40 N3      27.8390    -4.9240    68.4370 N.2   1 SAM  -0.6610 
 41 C4      28.3050    -4.6140    67.2520 C.2   1 SAM   0.5000 
 42 C5      29.4010    -5.3100    66.7560 C.2   1 SAM   0.4500 
 43 C6      29.9230    -6.3290    67.6250 C.2   1 SAM   0.6110 
 44 N6      30.8710    -6.9840    67.2880 N.2   1 SAM  -0.2000 
 45 H62     31.2346    -7.6990    67.9017 H     1 SAM   0.4000 
 46 H61     31.3049    -6.8200    66.3908 H     1 SAM   0.4000 
 47 N7      29.6950    -4.8100    65.5140 N.2   1 SAM  -0.6960 
 48 C8      28.8150    -3.8570    65.2730 C.3   1 SAM   0.4551 
 49 H81     28.2438    -4.1094    64.3796 H     1 SAM   0.0800 
 50 H82     29.3375    -2.9134    65.1156 H     1 SAM   0.0800 
 51 N9      27.9590    -3.7320    66.3420 N.pl3 1 SAM  -0.7882 
@<TRIPOS>BOND
  1   1   2  1   
  2   1   3  1   
  3   1   4  1   
  4   1   5  1   
  5   5   6  1   
  6   5   7  1   
  7   5   9  1   
  8   7   8  ar  
  9   7  36  ar  
 10   9  10  1   
 11   9  11  1   
 12   9  12  1   
 13  12  13  1   
 14  12  14  1   
 15  12  15  1   
 16  15  16  1   
 17  15  20  1   
 18  16  17  1   
 19  16  18  1   
 20  16  19  1   
 21  20  21  1   
 22  20  22  1   
 23  20  23  1   
 24  23  24  1   
 25  23  25  1   
 26  23  26  1   
 27  25  34  1   
 28  26  27  1   
 29  26  28  1   
 30  26  30  1   
 31  28  29  1   
 32  30  31  1   
 33  30  32  1   
 34  30  34  1   
 35  32  33  1   
 36  34  35  1   
 37  34  51  1   
 38  37  38  2   
 39  37  43  1   
 40  38  39  1   
 41  38  40  1   
 42  40  41  2   
 43  41  42  1   
 44  41  51  1   
 45  42  43  1   
 46  42  47  2   
 47  43  44  2   
 48  44  45  1   
 49  44  46  1   
 50  47  48  1   
 51  48  49  1   
 52  48  50  1   
 53  48  51  1   
@<TRIPOS>SUBSTRUCTURE
  1 SAM  25 GROUP 4 A **** 0

# MOE 2022.02 (io_trps.svl 2020.11)
