# created with PyMOL 2.5.0
@<TRIPOS>MOLECULE
6WZW
15 15 1                 
SMALL
USER_CHARGES
@<TRIPOS>ATOM
1	  N1	10.937	-3.174	-0.529	N.3	1	EPE2301	0.000	
2	 O1S	8.727	-7.657	0.329	O.3	1	EPE2301	0.000	
3	  C2	9.730	-2.373	-0.775	C.3	1	EPE2301	0.000	
4	 O2S	10.840	-7.379	1.403	O.2	1	EPE2301	0.000	
5	  C3	9.987	-1.333	-1.859	C.3	1	EPE2301	0.000	
6	 O3S	8.951	-6.110	2.133	O.2	1	EPE2301	0.000	
7	  N4	11.234	-0.614	-1.663	N.3	1	EPE2301	0.000	
8	  C5	12.389	-1.319	-1.138	C.3	1	EPE2301	0.000	
9	  C6	12.019	-2.307	-0.040	C.3	1	EPE2301	0.000	
10	  C7	11.473	0.564	-2.473	C.3	1	EPE2301	0.000	
11	  C8	10.700	1.779	-1.981	C.3	1	EPE2301	0.000	
12	  O8	11.573	2.595	-1.234	O.3	1	EPE2301	0.000	
13	  C9	10.633	-4.182	0.491	C.3	1	EPE2301	0.000	
14	 C10	10.079	-5.414	-0.209	C.3	1	EPE2301	0.000	
15	   S	9.621	-6.700	0.974	S.3	1	EPE2301	0.000	
@<TRIPOS>BOND
1 1 3 1
2 1 9 1
3 1 13 1
4 2 15 1
5 3 5 1
6 4 15 2
7 5 7 1
8 6 15 2
9 7 8 1
10 7 10 1
11 8 9 1
12 10 11 1
13 11 12 1
14 13 14 1
15 14 15 1
@<TRIPOS>SUBSTRUCTURE
1	EPE2301	1	GROUP	1 A	EPE
