@<TRIPOS>MOLECULE
6WZW.A
33 33 1 0 0 
SMALL
USER_CHARGES


@<TRIPOS>ATOM
  1 N1      10.9370    -3.1740    -0.5290 N.3   1 EPE  -0.8100 
  2 O1S      8.7270    -7.6570     0.3290 O.co2 1 EPE  -0.8167 
  3 C2       9.7300    -2.3730    -0.7750 C.3   1 EPE   0.1100 
  4 H21      9.4425    -1.8664     0.1463 H     1 EPE   0.0800 
  5 H22      8.9223    -3.0314    -1.0948 H     1 EPE   0.0800 
  6 O2S     10.8400    -7.3790     1.4030 O.co2 1 EPE  -0.8167 
  7 C3       9.9870    -1.3330    -1.8590 C.3   1 EPE   0.3430 
  8 H31      9.1666    -0.6154    -1.8550 H     1 EPE   0.0800 
  9 H32     10.0237    -1.8376    -2.8245 H     1 EPE   0.0800 
 10 O3S      8.9510    -6.1100     2.1330 O.co2 1 EPE  -0.8167 
 11 N4      11.2340    -0.6140    -1.6630 N.4   1 EPE  -0.9590 
 12 H4      10.9664    -0.1745    -0.7939 H     1 EPE   0.4500 
 13 C5      12.3890    -1.3190    -1.1380 C.3   1 EPE   0.3430 
 14 H51     13.0886    -0.5892    -0.7305 H     1 EPE   0.0800 
 15 H52     12.8660    -1.8640    -1.9526 H     1 EPE   0.0800 
 16 C6      12.0190    -2.3070    -0.0400 C.3   1 EPE   0.1100 
 17 H61     12.8879    -2.9137     0.2151 H     1 EPE   0.0800 
 18 H62     11.6828    -1.7642     0.8434 H     1 EPE   0.0800 
 19 C7      11.4730     0.5640    -2.4730 C.3   1 EPE   0.3430 
 20 H71     11.1712     0.3499    -3.4983 H     1 EPE   0.0800 
 21 H72     12.5381     0.7944    -2.4484 H     1 EPE   0.0800 
 22 C8      10.7000     1.7790    -1.9810 C.3   1 EPE   0.1200 
 23 H81      9.8704     1.4564    -1.3519 H     1 EPE   0.0800 
 24 H82     10.3137     2.3382    -2.8331 H     1 EPE   0.0800 
 25 O8      11.5730     2.5950    -1.2340 O.3   1 EPE  -0.6800 
 26 H8      11.0721     3.3567    -0.9330 H     1 EPE   0.4000 
 27 C9      10.6330    -4.1820     0.4910 C.3   1 EPE   0.1100 
 28 H91      9.8929    -3.7897     1.1885 H     1 EPE   0.0800 
 29 H92     11.5413    -4.4432     1.0340 H     1 EPE   0.0800 
 30 C10     10.0790    -5.4140    -0.2090 C.3   1 EPE  -0.0548 
 31 H101    10.8380    -5.8086    -0.8845 H     1 EPE   0.0800 
 32 H102     9.1962    -5.1289    -0.7813 H     1 EPE   0.0800 
 33 S        9.6210    -6.7000     0.9740 S.o2  1 EPE   1.3448 
@<TRIPOS>BOND
  1   1   3  1   
  2   1  16  1   
  3   1  27  1   
  4   2  33  ar  
  5   3   4  1   
  6   3   5  1   
  7   3   7  1   
  8   6  33  ar  
  9   7   8  1   
 10   7   9  1   
 11   7  11  1   
 12  10  33  ar  
 13  11  12  1   
 14  11  13  1   
 15  11  19  1   
 16  13  14  1   
 17  13  15  1   
 18  13  16  1   
 19  16  17  1   
 20  16  18  1   
 21  19  20  1   
 22  19  21  1   
 23  19  22  1   
 24  22  23  1   
 25  22  24  1   
 26  22  25  1   
 27  25  26  1   
 28  27  28  1   
 29  27  29  1   
 30  27  30  1   
 31  30  31  1   
 32  30  32  1   
 33  30  33  1   
@<TRIPOS>SUBSTRUCTURE
  1 EPE   1 GROUP 4 A **** 0

# MOE 2022.02 (io_trps.svl 2020.11)
