@<TRIPOS>MOLECULE
6WZW.A
51 53 1 0 0 
SMALL
USER_CHARGES


@<TRIPOS>ATOM
  1 N        0.2080   -10.1080    14.0650 N.4   1 SAM  -0.8530 
  2 H1      -0.4802   -10.3864    14.7499 H     1 SAM   0.4500 
  3 H2       0.1181   -10.6873    13.2426 H     1 SAM   0.4500 
  4 H3       0.0605    -9.1410    13.8134 H     1 SAM   0.4500 
  5 CA       1.5470   -10.2660    14.6280 C.3   1 SAM   0.3170 
  6 HA       2.2754    -9.9615    13.8764 H     1 SAM   0.0800 
  7 C        1.7990   -11.7290    14.9870 C.2   1 SAM   0.9060 
  8 O        1.0740   -12.6210    14.5340 O.co2 1 SAM  -0.9000 
  9 CB       1.7320    -9.3660    15.8590 C.3   1 SAM  -0.1600 
 10 HB1      2.5448    -9.7778    16.4572 H     1 SAM   0.0800 
 11 HB2      0.8075    -9.3913    16.4358 H     1 SAM   0.0800 
 12 CG       2.0620    -7.8990    15.5590 C.3   1 SAM  -0.1525 
 13 HG1      1.9149    -7.3104    16.4646 H     1 SAM   0.0800 
 14 HG2      1.3926    -7.5378    14.7782 H     1 SAM   0.0800 
 15 SD       3.7820    -7.7040    15.0000 S.3   1 SAM   0.9775 
 16 CE       4.3590    -6.3070    16.0150 C.3   1 SAM  -0.2325 
 17 HE1      4.5524    -6.6515    17.0309 H     1 SAM   0.0800 
 18 HE2      3.5937    -5.5311    16.0339 H     1 SAM   0.0800 
 19 HE3      5.2764    -5.9020    15.5878 H     1 SAM   0.0800 
 20 C5'      3.5600    -6.8290    13.4350 C.3   1 SAM  -0.1525 
 21 H5'1     4.4871    -6.3106    13.1906 H     1 SAM   0.0800 
 22 H5'2     2.7571    -6.1013    13.5530 H     1 SAM   0.0800 
 23 C4'      3.2070    -7.7610    12.2880 C.3   1 SAM   0.2000 
 24 H4'      3.8830    -8.6141    12.3463 H     1 SAM   0.0800 
 25 O4'      1.8410    -8.1480    12.4000 O.3   1 SAM  -0.5600 
 26 C3'      3.3590    -7.0760    10.9360 C.3   1 SAM   0.2000 
 27 H3'      3.2512    -5.9921    10.9764 H     1 SAM   0.0800 
 28 O3'      4.6570    -7.2340    10.3880 O.3   1 SAM  -0.6800 
 29 H3'      4.8304    -8.1757    10.3192 H     1 SAM   0.4000 
 30 C2'      2.2760    -7.7490    10.1210 C.3   1 SAM   0.2000 
 31 H2'      1.9392    -7.1297     9.2896 H     1 SAM   0.0800 
 32 O2'      2.7410    -8.9650     9.5780 O.3   1 SAM  -0.6800 
 33 H2'      3.4631    -8.7586     8.9800 H     1 SAM   0.4000 
 34 C1'      1.1970    -8.0540    11.1490 C.3   1 SAM   0.5691 
 35 H1'      0.6643    -8.9674    10.8845 H     1 SAM   0.0800 
 36 OXT      2.7310   -12.0560    15.7240 O.co2 1 SAM  -0.9000 
 37 N1      -2.8360    -5.7680     8.8230 N.2   1 SAM  -0.6610 
 38 C2      -2.1610    -6.9130     8.4570 C.2   1 SAM   0.6010 
 39 H2      -2.4539    -7.4498     7.5668 H     1 SAM   0.0600 
 40 N3      -1.1140    -7.3740     9.2240 N.2   1 SAM  -0.6610 
 41 C4      -0.7390    -6.6870    10.3200 C.2   1 SAM   0.5000 
 42 C5      -1.3990    -5.5320    10.7070 C.2   1 SAM   0.4500 
 43 C6      -2.4640    -5.0620     9.9440 C.2   1 SAM   0.6110 
 44 N6      -3.1280    -3.9510    10.2540 N.2   1 SAM  -0.2000 
 45 H62     -3.8957    -3.6431     9.6744 H     1 SAM   0.4000 
 46 H61     -2.8642    -3.4158    11.0689 H     1 SAM   0.4000 
 47 N7      -0.7930    -5.0840    11.8360 N.2   1 SAM  -0.6960 
 48 C8       0.2190    -5.9240    12.1500 C.3   1 SAM   0.4551 
 49 H81      0.0524    -6.3451    13.1415 H     1 SAM   0.0800 
 50 H82      1.1638    -5.3805    12.1402 H     1 SAM   0.0800 
 51 N9       0.2560    -6.9310    11.2210 N.pl3 1 SAM  -0.7882 
@<TRIPOS>BOND
  1   1   2  1   
  2   1   3  1   
  3   1   4  1   
  4   1   5  1   
  5   5   6  1   
  6   5   7  1   
  7   5   9  1   
  8   7   8  ar  
  9   7  36  ar  
 10   9  10  1   
 11   9  11  1   
 12   9  12  1   
 13  12  13  1   
 14  12  14  1   
 15  12  15  1   
 16  15  16  1   
 17  15  20  1   
 18  16  17  1   
 19  16  18  1   
 20  16  19  1   
 21  20  21  1   
 22  20  22  1   
 23  20  23  1   
 24  23  24  1   
 25  23  25  1   
 26  23  26  1   
 27  25  34  1   
 28  26  27  1   
 29  26  28  1   
 30  26  30  1   
 31  28  29  1   
 32  30  31  1   
 33  30  32  1   
 34  30  34  1   
 35  32  33  1   
 36  34  35  1   
 37  34  51  1   
 38  37  38  2   
 39  37  43  1   
 40  38  39  1   
 41  38  40  1   
 42  40  41  2   
 43  41  42  1   
 44  41  51  1   
 45  42  43  1   
 46  42  47  2   
 47  43  44  2   
 48  44  45  1   
 49  44  46  1   
 50  47  48  1   
 51  48  49  1   
 52  48  50  1   
 53  48  51  1   
@<TRIPOS>SUBSTRUCTURE
  1 SAM  25 GROUP 4 A **** 0

# MOE 2022.02 (io_trps.svl 2020.11)
