# created with PyMOL 2.5.0
@<TRIPOS>MOLECULE
6WZW
27 29 1                 
SMALL
USER_CHARGES
@<TRIPOS>ATOM
1	   N	0.208	-10.108	14.065	N.3	1	SAM2302	0.000	
2	  CA	1.547	-10.266	14.628	C.3	1	SAM2302	0.000	
3	   C	1.799	-11.729	14.987	C.2	1	SAM2302	0.000	
4	   O	1.074	-12.621	14.534	O.co2	1	SAM2302	0.000	
5	  CB	1.732	-9.366	15.859	C.3	1	SAM2302	0.000	
6	  CG	2.062	-7.899	15.559	C.3	1	SAM2302	0.000	
7	  SD	3.782	-7.704	15.000	S.3	1	SAM2302	0.000	
8	  CE	4.359	-6.307	16.015	C.3	1	SAM2302	0.000	
9	 C5'	3.560	-6.829	13.435	C.3	1	SAM2302	0.000	
10	 C4'	3.207	-7.761	12.288	C.3	1	SAM2302	0.000	
11	 O4'	1.841	-8.148	12.400	O.3	1	SAM2302	0.000	
12	 C3'	3.359	-7.076	10.936	C.3	1	SAM2302	0.000	
13	 O3'	4.657	-7.234	10.388	O.3	1	SAM2302	0.000	
14	 C2'	2.276	-7.749	10.121	C.3	1	SAM2302	0.000	
15	 O2'	2.741	-8.965	9.578	O.3	1	SAM2302	0.000	
16	 C1'	1.197	-8.054	11.149	C.3	1	SAM2302	0.000	
17	 OXT	2.731	-12.056	15.724	O.co2	1	SAM2302	0.000	
18	  N1	-2.836	-5.768	8.823	N.2	1	SAM2302	0.000	
19	  C2	-2.161	-6.913	8.457	C.2	1	SAM2302	0.000	
20	  N3	-1.114	-7.374	9.224	N.2	1	SAM2302	0.000	
21	  C4	-0.739	-6.687	10.320	C.2	1	SAM2302	0.000	
22	  C5	-1.399	-5.532	10.707	C.2	1	SAM2302	0.000	
23	  C6	-2.464	-5.062	9.944	C.2	1	SAM2302	0.000	
24	  N6	-3.128	-3.951	10.254	N.pl3	1	SAM2302	0.000	
25	  N7	-0.793	-5.084	11.836	N.2	1	SAM2302	0.000	
26	  C8	0.219	-5.924	12.150	C.2	1	SAM2302	0.000	
27	  N9	0.256	-6.931	11.221	N.2	1	SAM2302	0.000	
@<TRIPOS>BOND
1 1 2 1
2 2 3 1
3 2 5 1
4 3 4 ar
5 3 17 ar
6 5 6 1
7 6 7 1
8 7 8 1
9 7 9 1
10 9 10 1
11 10 11 1
12 10 12 1
13 11 16 1
14 12 13 1
15 12 14 1
16 14 15 1
17 14 16 1
18 16 27 1
19 18 19 ar
20 18 23 ar
21 19 20 ar
22 20 21 ar
23 21 22 ar
24 21 27 ar
25 22 23 ar
26 22 25 ar
27 23 24 1
28 25 26 ar
29 26 27 ar
@<TRIPOS>SUBSTRUCTURE
1	SAM2302	1	GROUP	1 A	SAM
