# created with PyMOL 2.4.0
@<TRIPOS>MOLECULE
temp
50 52 1                 
SMALL
USER_CHARGES
@<TRIPOS>ATOM
1	   N	0.208	-10.108	14.065	N.4	1	SAM1	0.000	
2	  CA	1.547	-10.266	14.628	C.3	1	SAM1	0.000	
3	   C	1.799	-11.729	14.987	C.2	1	SAM1	0.000	
4	   O	1.074	-12.621	14.534	O.co2	1	SAM1	0.000	
5	  CB	1.732	-9.366	15.859	C.3	1	SAM1	0.000	
6	  CG	2.062	-7.899	15.559	C.3	1	SAM1	0.000	
7	  SD	3.782	-7.704	15.000	S.3	1	SAM1	0.000	
8	  CE	4.359	-6.307	16.015	C.3	1	SAM1	0.000	
9	 C5'	3.560	-6.829	13.435	C.3	1	SAM1	0.000	
10	 C4'	3.207	-7.761	12.288	C.3	1	SAM1	0.000	
11	 O4'	1.841	-8.148	12.400	O.3	1	SAM1	0.000	
12	 C3'	3.359	-7.076	10.936	C.3	1	SAM1	0.000	
13	 O3'	4.657	-7.234	10.388	O.3	1	SAM1	0.000	
14	 C2'	2.276	-7.749	10.121	C.3	1	SAM1	0.000	
15	 O2'	2.741	-8.965	9.578	O.3	1	SAM1	0.000	
16	 C1'	1.197	-8.054	11.149	C.3	1	SAM1	0.000	
17	 OXT	2.731	-12.056	15.724	O.co2	1	SAM1	0.000	
18	  N1	-2.836	-5.768	8.823	N.2	1	SAM1	0.000	
19	  C2	-2.161	-6.913	8.457	C.2	1	SAM1	0.000	
20	  N3	-1.114	-7.374	9.224	N.2	1	SAM1	0.000	
21	  C4	-0.739	-6.687	10.320	C.2	1	SAM1	0.000	
22	  C5	-1.399	-5.532	10.707	C.2	1	SAM1	0.000	
23	  C6	-2.464	-5.062	9.944	C.2	1	SAM1	0.000	
24	  N6	-3.128	-3.951	10.254	N.pl3	1	SAM1	0.000	
25	  N7	-0.793	-5.084	11.836	N.2	1	SAM1	0.000	
26	  C8	0.219	-5.924	12.150	C.2	1	SAM1	0.000	
27	  N9	0.256	-6.931	11.221	N.2	1	SAM1	0.000	
28	  HA	2.275	-9.962	13.876	 H	1	SAM1	0.000	
29	 HB1	2.545	-9.778	16.457	 H	1	SAM1	0.000	
30	 HB2	0.808	-9.391	16.436	 H	1	SAM1	0.000	
31	 HG1	1.915	-7.310	16.465	 H	1	SAM1	0.000	
32	 HG2	1.393	-7.538	14.778	 H	1	SAM1	0.000	
33	 HE1	4.552	-6.652	17.031	 H	1	SAM1	0.000	
34	 HE2	3.594	-5.531	16.034	 H	1	SAM1	0.000	
35	 HE3	5.276	-5.902	15.588	 H	1	SAM1	0.000	
36	  H1	-0.480	-10.386	14.750	 H	1	SAM1	0.000	
37	  H2	0.118	-10.687	13.243	 H	1	SAM1	0.000	
38	  H2	-2.454	-7.450	7.567	 H	1	SAM1	0.000	
39	  H3	0.060	-9.141	13.813	 H	1	SAM1	0.000	
40	  H8	0.887	-5.819	12.992	 H	1	SAM1	0.000	
41	 H1'	0.664	-8.967	10.884	 H	1	SAM1	0.000	
42	 H2'	1.939	-7.130	9.290	 H	1	SAM1	0.000	
43	 H2'	3.463	-8.759	8.980	 H	1	SAM1	0.000	
44	 H3'	3.251	-5.992	10.976	 H	1	SAM1	0.000	
45	 H3'	4.660	-6.815	9.524	 H	1	SAM1	0.000	
46	 H4'	3.883	-8.614	12.346	 H	1	SAM1	0.000	
47	 H61	-2.864	-3.416	11.069	 H	1	SAM1	0.000	
48	 H62	-3.896	-3.643	9.674	 H	1	SAM1	0.000	
49	H5'1	4.487	-6.311	13.191	 H	1	SAM1	0.000	
50	H5'2	2.757	-6.101	13.553	 H	1	SAM1	0.000	
@<TRIPOS>BOND
1 1 2 1
2 1 36 1
3 1 37 1
4 1 39 1
5 2 3 1
6 2 5 1
7 2 28 1
8 3 4 ar
9 3 17 ar
10 5 6 1
11 5 29 1
12 5 30 1
13 6 7 1
14 6 31 1
15 6 32 1
16 7 8 1
17 7 9 1
18 8 33 1
19 8 34 1
20 8 35 1
21 9 10 1
22 9 49 1
23 9 50 1
24 10 11 1
25 10 12 1
26 10 46 1
27 11 16 1
28 12 13 1
29 12 14 1
30 12 44 1
31 13 45 1
32 14 15 1
33 14 16 1
34 14 42 1
35 15 43 1
36 16 27 1
37 16 41 1
38 18 19 ar
39 18 23 ar
40 19 20 ar
41 19 38 1
42 20 21 ar
43 21 22 ar
44 21 27 ar
45 22 23 ar
46 22 25 ar
47 23 24 1
48 24 47 1
49 24 48 1
50 25 26 ar
51 26 27 ar
52 26 40 1
@<TRIPOS>SUBSTRUCTURE
1	SAM1	1	GROUP	1 A	SAM
