# created with PyMOL 2.4.0
@<TRIPOS>MOLECULE
temp
68 72 1                 
SMALL
USER_CHARGES
@<TRIPOS>ATOM
1	 CAA	5.644	-3.267	9.281	C.2	1	UG1	0.000	
2	 CAB	5.855	-2.088	8.565	C.2	1	UG1	0.000	
3	 CAC	6.524	-0.999	9.104	C.2	1	UG1	0.000	
4	 CAD	6.971	-1.148	10.432	C.2	1	UG1	0.000	
5	 CAE	6.770	-2.324	11.185	C.2	1	UG1	0.000	
6	 CAF	6.102	-3.386	10.589	C.2	1	UG1	0.000	
7	 CAG	7.102	4.152	8.841	C.2	1	UG1	0.000	
8	 CAH	6.961	3.402	10.011	C.2	1	UG1	0.000	
9	 CAI	7.247	5.552	8.813	C.3	1	UG1	0.000	
10	 CAJ	6.938	2.146	7.604	C.2	1	UG1	0.000	
11	 CAK	6.806	1.400	8.721	C.2	1	UG1	0.000	
12	 CAL	7.083	3.476	7.637	C.2	1	UG1	0.000	
13	 CAM	6.811	2.013	9.924	C.2	1	UG1	0.000	
14	 CAN	7.018	1.852	5.123	C.3	1	UG1	0.000	
15	 CAO	8.091	1.102	4.361	C.3	1	UG1	0.000	
16	 CAP	8.057	1.342	2.843	C.3	1	UG1	0.000	
17	 CAQ	5.774	1.987	2.915	C.3	1	UG1	0.000	
18	 CAR	5.667	1.761	4.449	C.3	1	UG1	0.000	
19	 CAS	9.181	7.130	11.726	C.3	1	UG1	0.000	
20	 CAT	7.987	7.930	12.176	C.3	1	UG1	0.000	
21	 CAU	9.825	8.501	11.607	C.3	1	UG1	0.000	
22	 CAV	6.673	1.610	-0.436	C.3	1	UG1	0.000	
23	 NAW	6.902	1.338	6.548	N.2	1	UG1	0.000	
24	 NAX	6.701	0.938	2.459	N.3	1	UG1	0.000	
25	 OAZ	7.503	-0.768	0.796	O.2	1	UG1	0.000	
26	 SAY	6.508	0.355	1.025	S.O2	1	UG1	0.000	
27	 CBE	7.262	-2.429	12.509	C.2	1	UG1	0.000	
28	 CBH	6.687	0.114	8.330	C.2	1	UG1	0.000	
29	 CBI	6.742	0.082	6.973	C.2	1	UG1	0.000	
30	 CBK	8.946	6.501	10.352	C.2	1	UG1	0.000	
31	 NBF	8.162	-1.528	12.908	N.pl3	1	UG1	0.000	
32	 NBJ	7.676	6.151	10.087	N.pl3	1	UG1	0.000	
33	 NBM	9.008	8.798	12.807	N.4	1	UG1	0.000	
34	 OBA	5.119	-0.254	0.926	O.2	1	UG1	0.000	
35	 OBL	9.880	6.338	9.572	O.2	1	UG1	0.000	
36	 SBG	6.767	-3.749	13.565	S.2	1	UG1	0.000	
37	 FBB	5.705	2.477	-0.319	 F	1	UG1	0.000	
38	 FBC	7.814	2.125	-0.415	 F	1	UG1	0.000	
39	 FBD	6.557	0.927	-1.518	 F	1	UG1	0.000	
40	 HAA	5.122	-4.091	8.817	 H	1	UG1	0.000	
41	 HAB	5.483	-2.021	7.553	 H	1	UG1	0.000	
42	 HAD	7.492	-0.323	10.895	 H	1	UG1	0.000	
43	 HAF	5.939	-4.301	11.139	 H	1	UG1	0.000	
44	 HAH	6.968	3.890	10.975	 H	1	UG1	0.000	
45	HAI1	6.286	5.988	8.540	 H	1	UG1	0.000	
46	HAI2	7.988	5.802	8.054	 H	1	UG1	0.000	
47	 HAL	7.186	4.026	6.713	 H	1	UG1	0.000	
48	 HAM	6.699	1.428	10.825	 H	1	UG1	0.000	
49	 HAN	7.324	2.898	5.136	 H	1	UG1	0.000	
50	HAO1	7.960	0.035	4.543	 H	1	UG1	0.000	
51	HAO2	9.064	1.418	4.737	 H	1	UG1	0.000	
52	HAP1	8.803	0.731	2.336	 H	1	UG1	0.000	
53	HAP2	8.230	2.393	2.611	 H	1	UG1	0.000	
54	HAQ1	6.174	2.977	2.697	 H	1	UG1	0.000	
55	HAQ2	4.800	1.876	2.439	 H	1	UG1	0.000	
56	HAR1	5.009	2.520	4.873	 H	1	UG1	0.000	
57	HAR2	5.247	0.772	4.632	 H	1	UG1	0.000	
58	 HAS	9.608	6.294	12.280	 H	1	UG1	0.000	
59	HAT1	7.315	7.420	12.866	 H	1	UG1	0.000	
60	HAT2	7.406	8.394	11.379	 H	1	UG1	0.000	
61	HAU1	9.567	9.066	10.711	 H	1	UG1	0.000	
62	HAU2	10.905	8.528	11.755	 H	1	UG1	0.000	
63	HBF1	8.571	-1.596	13.829	 H	1	UG1	0.000	
64	HBF2	8.434	-0.778	12.289	 H	1	UG1	0.000	
65	 HBI	6.670	-0.798	6.351	 H	1	UG1	0.000	
66	 HBJ	6.978	6.307	10.800	 H	1	UG1	0.000	
67	HBM1	9.385	8.453	13.678	 H	1	UG1	0.000	
68	HBM2	8.741	9.766	12.915	 H	1	UG1	0.000	
@<TRIPOS>BOND
1 1 2 ar
2 1 6 ar
3 1 40 1
4 2 3 ar
5 2 41 1
6 3 4 ar
7 3 28 1
8 4 5 ar
9 4 42 1
10 5 6 ar
11 5 27 1
12 6 43 1
13 7 8 ar
14 7 9 1
15 7 12 ar
16 8 13 ar
17 8 44 1
18 9 32 1
19 9 45 1
20 9 46 1
21 10 11 ar
22 10 12 ar
23 10 23 ar
24 11 13 ar
25 11 28 ar
26 12 47 1
27 13 48 1
28 14 15 1
29 14 18 1
30 14 23 1
31 14 49 1
32 15 16 1
33 15 50 1
34 15 51 1
35 16 24 1
36 16 52 1
37 16 53 1
38 17 18 1
39 17 24 1
40 17 54 1
41 17 55 1
42 18 56 1
43 18 57 1
44 19 20 1
45 19 21 1
46 19 30 1
47 19 58 1
48 20 33 1
49 20 59 1
50 20 60 1
51 21 33 1
52 21 61 1
53 21 62 1
54 22 26 1
55 22 37 1
56 22 38 1
57 22 39 1
58 23 29 ar
59 24 26 1
60 25 26 2
61 26 34 2
62 27 36 2
63 28 29 ar
64 29 65 1
65 30 32 1
66 30 35 2
67 31 63 1
68 31 64 1
69 32 66 1
70 33 67 1
71 33 68 1
72 27 31 1
@<TRIPOS>SUBSTRUCTURE
1	UG1	1	GROUP	1 A	UG
