@<TRIPOS>MOLECULE
6WZW.A
64 69 1 0 0 
SMALL
USER_CHARGES


@<TRIPOS>ATOM
  1 CAA      5.6440    -3.2670     9.2810 C.ar  1 UG  -0.1500 
  2 HAA      5.1225    -4.0912     8.8172 H     1 UG   0.1500 
  3 CAB      5.8550    -2.0880     8.5650 C.ar  1 UG  -0.1500 
  4 HAB      5.4834    -2.0209     7.5531 H     1 UG   0.1500 
  5 CAC      6.5240    -0.9990     9.1040 C.ar  1 UG   0.0284 
  6 CAD      6.9710    -1.1480    10.4320 C.ar  1 UG  -0.1500 
  7 HAD      7.4920    -0.3231    10.8952 H     1 UG   0.1500 
  8 CAE      6.7700    -2.3240    11.1850 C.ar  1 UG   0.0862 
  9 CAF      6.1020    -3.3860    10.5890 C.ar  1 UG  -0.1500 
 10 HAF      5.9388    -4.3009    11.1392 H     1 UG   0.1500 
 11 CAG      7.1020     4.1520     8.8410 C.2   1 UG  -0.1382 
 12 CAH      6.9610     3.4020    10.0110 C.2   1 UG  -0.1500 
 13 HAH      6.9677     3.8897    10.9746 H     1 UG   0.1500 
 14 CAI      7.2470     5.5520     8.8130 C.3   1 UG   0.2783 
 15 HAI1     6.2860     5.9876     8.5395 H     1 UG   0.0800 
 16 HAI2     7.9882     5.8015     8.0538 H     1 UG   0.0800 
 17 CAJ      6.9380     2.1460     7.6040 C.2   1 UG   0.3712 
 18 CAK      6.8060     1.4000     8.7210 C.2   1 UG   0.0144 
 19 CAL      7.0830     3.4760     7.6370 C.2   1 UG  -0.1356 
 20 HAL      7.1861     4.0259     6.7132 H     1 UG   0.1500 
 21 CAM      6.8110     2.0130     9.9240 C.2   1 UG  -0.1500 
 22 HAM      6.6986     1.4280    10.8248 H     1 UG   0.1500 
 23 CAN      7.0180     1.8520     5.1230 C.3   1 UG   0.2661 
 24 HAN      7.3238     2.8982     5.1356 H     1 UG   0.0800 
 25 CAO      8.0910     1.1020     4.3610 C.3   1 UG  -0.1600 
 26 HAO1     7.9599     0.0354     4.5433 H     1 UG   0.0800 
 27 HAO2     9.0640     1.4180     4.7371 H     1 UG   0.0800 
 28 CAP      8.0570     1.3420     2.8430 C.3   1 UG   0.1957 
 29 HAP1     8.8033     0.7306     2.3358 H     1 UG   0.0800 
 30 HAP2     8.2300     2.3930     2.6114 H     1 UG   0.0800 
 31 CAQ      5.7740     1.9870     2.9150 C.3   1 UG   0.1957 
 32 HAQ1     6.1737     2.9774     2.6971 H     1 UG   0.0800 
 33 HAQ2     4.7998     1.8756     2.4390 H     1 UG   0.0800 
 34 CAR      5.6670     1.7610     4.4490 C.3   1 UG  -0.1600 
 35 HAR1     5.0089     2.5195     4.8728 H     1 UG   0.0800 
 36 HAR2     5.2468     0.7721     4.6320 H     1 UG   0.0800 
 37 CAS      9.1810     7.1300    11.7260 C.3   1 UG  -0.1000 
 38 HAS      9.6082     6.2943    12.2803 H     1 UG   0.1000 
 39 CAT      7.9870     7.9300    12.1760 C.3   1 UG   0.0580 
 40 HAT      6.9100     7.7776    12.2462 H     1 UG   0.1000 
 41 CAU      9.8250     8.5010    11.6070 C.3   1 UG   0.0580 
 42 HAU     10.6720     8.9428    11.0822 H     1 UG   0.1000 
 43 CAV      6.6730     1.6100    -0.4360 C.3   1 UG   1.1252 
 44 NAW      6.9020     1.3380     6.5480 N.2   1 UG  -0.0922 
 45 NAX      6.7010     0.9380     2.4590 N.am  1 UG  -0.8494 
 46 OAZ      7.5030    -0.7680     0.7960 O.2   1 UG  -0.6500 
 47 SAY      6.5080     0.3550     1.0250 S.o2  1 UG   1.3328 
 48 CBE      7.2620    -2.4290    12.5090 C.2   1 UG  -0.0737 
 49 CBH      6.6870     0.1140     8.3300 C.2   1 UG  -0.1666 
 50 CBI      6.7420     0.0820     6.9730 C.3   1 UG   0.3243 
 51 HBI1     7.5834    -0.5306     6.6490 H     1 UG   0.0800 
 52 HBI2     5.8162    -0.3313     6.5727 H     1 UG   0.0800 
 53 CBK      8.9460     6.5010    10.3520 C.2   1 UG   0.6300 
 54 NBF      8.1620    -1.5280    12.9080 N.2   1 UG  -1.0275 
 55 NBJ      7.6760     6.1510    10.0870 N.am  1 UG  -0.7301 
 56 HBJ      6.9784     6.3074    10.8004 H     1 UG   0.3700 
 57 NBM      9.0080     8.7980    12.8070 N.3   1 UG  -0.6760 
 58 HBM      9.3847     8.4534    13.6785 H     1 UG   0.3600 
 59 OBA      5.1190    -0.2540     0.9260 O.2   1 UG  -0.6500 
 60 OBL      9.8800     6.3380     9.5720 O.2   1 UG  -0.5700 
 61 SBG      6.7670    -3.7490    13.5650 S.3   1 UG  -0.9850 
 62 FBB      5.7050     2.4770    -0.3190 F     1 UG  -0.3400 
 63 FBC      7.8140     2.1250    -0.4150 F     1 UG  -0.3400 
 64 FBD      6.5570     0.9270    -1.5180 F     1 UG  -0.3400 
@<TRIPOS>BOND
  1   1   2  1   
  2   1   3  ar  
  3   1   9  ar  
  4   3   4  1   
  5   3   5  ar  
  6   5   6  ar  
  7   5  49  1   
  8   6   7  1   
  9   6   8  ar  
 10   8   9  ar  
 11   8  48  1   
 12   9  10  1   
 13  11  12  1   
 14  11  14  1   
 15  11  19  2   
 16  12  13  1   
 17  12  21  2   
 18  14  15  1   
 19  14  16  1   
 20  14  55  1   
 21  17  18  1   
 22  17  19  1   
 23  17  44  2   
 24  18  21  1   
 25  18  49  2   
 26  19  20  1   
 27  21  22  1   
 28  23  24  1   
 29  23  25  1   
 30  23  34  1   
 31  23  44  1   
 32  25  26  1   
 33  25  27  1   
 34  25  28  1   
 35  28  29  1   
 36  28  30  1   
 37  28  45  1   
 38  31  32  1   
 39  31  33  1   
 40  31  34  1   
 41  31  45  1   
 42  34  35  1   
 43  34  36  1   
 44  37  38  1   
 45  37  39  1   
 46  37  41  1   
 47  37  53  1   
 48  39  40  1   
 49  39  41  1   
 50  39  57  1   
 51  41  42  1   
 52  41  57  1   
 53  43  47  1   
 54  43  62  1   
 55  43  63  1   
 56  43  64  1   
 57  44  50  1   
 58  45  47  am  
 59  46  47  2   
 60  47  59  2   
 61  48  54  2   
 62  48  61  1   
 63  49  50  1   
 64  50  51  1   
 65  50  52  1   
 66  53  55  am  
 67  53  60  2   
 68  55  56  1   
 69  57  58  1   
@<TRIPOS>SUBSTRUCTURE
  1 UG  17 GROUP 4 A **** 0

# MOE 2022.02 (io_trps.svl 2020.11)
