# created with PyMOL 2.4.0
@<TRIPOS>MOLECULE
6WZW.A
63 68 1                 
SMALL
USER_CHARGES
@<TRIPOS>ATOM
1	 CAA	5.644	-3.267	9.281	C.2	1	UG1	-0.150	
2	 CAB	5.855	-2.088	8.565	C.2	1	UG1	-0.150	
3	 CAC	6.524	-0.999	9.104	C.2	1	UG1	0.028	
4	 CAD	6.971	-1.148	10.432	C.2	1	UG1	-0.150	
5	 CAE	6.770	-2.324	11.185	C.2	1	UG1	0.086	
6	 CAF	6.102	-3.386	10.589	C.2	1	UG1	-0.150	
7	 CAG	7.102	4.152	8.841	C.2	1	UG1	-0.138	
8	 CAH	6.961	3.402	10.011	C.2	1	UG1	-0.150	
9	 CAI	7.247	5.552	8.813	C.3	1	UG1	0.278	
10	 CAJ	6.938	2.146	7.604	C.2	1	UG1	0.371	
11	 CAK	6.806	1.400	8.721	C.2	1	UG1	0.014	
12	 CAL	7.083	3.476	7.637	C.2	1	UG1	-0.136	
13	 CAM	6.811	2.013	9.924	C.2	1	UG1	-0.150	
14	 CAN	7.018	1.852	5.123	C.3	1	UG1	0.266	
15	 CAO	8.091	1.102	4.361	C.3	1	UG1	-0.160	
16	 CAP	8.057	1.342	2.843	C.3	1	UG1	0.196	
17	 CAQ	5.774	1.987	2.915	C.3	1	UG1	0.196	
18	 CAR	5.667	1.761	4.449	C.3	1	UG1	-0.160	
19	 CAS	9.181	7.130	11.726	C.3	1	UG1	-0.100	
20	 CAT	7.987	7.930	12.176	C.3	1	UG1	0.058	
21	 CAU	9.825	8.501	11.607	C.3	1	UG1	0.058	
22	 CAV	6.673	1.610	-0.436	C.3	1	UG1	1.125	
23	 NAW	6.902	1.338	6.548	N.4	1	UG1	-0.092	
24	 NAX	6.701	0.938	2.459	N.3	1	UG1	-0.849	
25	 OAZ	7.503	-0.768	0.796	O.2	1	UG1	-0.650	
26	 SAY	6.508	0.355	1.025	S.O2	1	UG1	1.333	
27	 CBE	7.262	-2.429	12.509	C.2	1	UG1	-0.074	
28	 CBH	6.687	0.114	8.330	C.2	1	UG1	-0.167	
29	 CBI	6.742	0.082	6.973	C.2	1	UG1	0.324	
30	 CBK	8.946	6.501	10.352	C.2	1	UG1	0.630	
31	 NBF	8.162	-1.528	12.908	N.pl3	1	UG1	-1.028	
32	 NBJ	7.676	6.151	10.087	N.pl3	1	UG1	-0.730	
33	 NBM	9.008	8.798	12.807	N.3	1	UG1	-0.676	
34	 OBA	5.119	-0.254	0.926	O.2	1	UG1	-0.650	
35	 OBL	9.880	6.338	9.572	O.2	1	UG1	-0.570	
36	 SBG	6.767	-3.749	13.565	S.3	1	UG1	-0.985	
37	 FBB	5.705	2.477	-0.319	 F	1	UG1	-0.340	
38	 FBC	7.814	2.125	-0.415	 F	1	UG1	-0.340	
39	 FBD	6.557	0.927	-1.518	 F	1	UG1	-0.340	
40	 HAA	5.122	-4.091	8.817	 H	1	UG1	0.150	
41	 HAB	5.483	-2.021	7.553	 H	1	UG1	0.150	
42	 HAD	7.492	-0.323	10.895	 H	1	UG1	0.150	
43	 HAF	5.939	-4.301	11.139	 H	1	UG1	0.150	
44	 HAH	6.968	3.890	10.975	 H	1	UG1	0.150	
45	HAI1	6.286	5.988	8.540	 H	1	UG1	0.080	
46	HAI2	7.988	5.801	8.054	 H	1	UG1	0.080	
47	 HAL	7.186	4.026	6.713	 H	1	UG1	0.150	
48	 HAM	6.699	1.428	10.825	 H	1	UG1	0.150	
49	 HAN	7.324	2.898	5.136	 H	1	UG1	0.080	
50	HAO1	7.960	0.035	4.543	 H	1	UG1	0.080	
51	HAO2	9.064	1.418	4.737	 H	1	UG1	0.080	
52	HAP1	8.803	0.731	2.336	 H	1	UG1	0.080	
53	HAP2	8.230	2.393	2.611	 H	1	UG1	0.080	
54	HAQ1	6.174	2.977	2.697	 H	1	UG1	0.080	
55	HAQ2	4.800	1.876	2.439	 H	1	UG1	0.080	
56	HAR1	5.009	2.520	4.873	 H	1	UG1	0.080	
57	HAR2	5.247	0.772	4.632	 H	1	UG1	0.080	
58	 HAS	9.608	6.294	12.280	 H	1	UG1	0.100	
59	 HAT	6.910	7.778	12.246	 H	1	UG1	0.100	
60	 HAU	10.672	8.943	11.082	 H	1	UG1	0.100	
61	HBI1	7.583	-0.531	6.649	 H	1	UG1	0.080	
62	 HBJ	6.978	6.307	10.800	 H	1	UG1	0.370	
63	 HBM	9.385	8.453	13.679	 H	1	UG1	0.360	
@<TRIPOS>BOND
1 1 2 ar
2 1 6 ar
3 1 40 1
4 2 3 ar
5 2 41 1
6 3 4 ar
7 3 28 1
8 4 5 ar
9 4 42 1
10 5 6 ar
11 5 27 1
12 6 43 1
13 7 8 1
14 7 9 1
15 7 12 2
16 8 13 2
17 8 44 1
18 9 32 1
19 9 45 1
20 9 46 1
21 10 12 1
22 11 13 1
23 12 47 1
24 13 48 1
25 14 15 1
26 14 18 1
27 14 23 1
28 14 49 1
29 15 16 1
30 15 50 1
31 15 51 1
32 16 24 1
33 16 52 1
34 16 53 1
35 17 18 1
36 17 24 1
37 17 54 1
38 17 55 1
39 18 56 1
40 18 57 1
41 19 20 1
42 19 21 1
43 19 30 1
44 19 58 1
45 20 21 1
46 20 33 1
47 20 59 1
48 21 33 1
49 21 60 1
50 22 26 1
51 22 37 1
52 22 38 1
53 22 39 1
54 23 29 1
55 24 26 1
56 25 26 2
57 26 34 2
58 27 31 2
59 27 36 1
60 29 61 1
61 30 32 1
62 30 35 2
63 32 62 1
64 33 63 1
65 10 23 1
66 10 11 2
67 11 28 1
68 28 29 2
@<TRIPOS>SUBSTRUCTURE
1	UG1	1	GROUP	1 A	UG
