@<TRIPOS>MOLECULE
temp.A
68 72 1 0 0 
SMALL
USER_CHARGES


@<TRIPOS>ATOM
  1 CAA      5.6440    -3.2670     9.2810 C.ar  1 UG1  -0.1500 
  2 CAB      5.8550    -2.0880     8.5650 C.ar  1 UG1  -0.1500 
  3 CAC      6.5240    -0.9990     9.1040 C.ar  1 UG1   0.0540 
  4 CAD      6.9710    -1.1480    10.4320 C.ar  1 UG1  -0.1500 
  5 CAE      6.7700    -2.3240    11.1850 C.ar  1 UG1   0.0862 
  6 CAF      6.1020    -3.3860    10.5890 C.ar  1 UG1  -0.1500 
  7 CAG      7.1020     4.1520     8.8410 C.ar  1 UG1  -0.1435 
  8 CAH      6.9610     3.4020    10.0110 C.ar  1 UG1  -0.1500 
  9 CAI      7.2470     5.5520     8.8130 C.3   1 UG1   0.2836 
 10 CAJ      6.9380     2.1460     7.6040 C.ar  1 UG1  -0.1516 
 11 CAK      6.8060     1.4000     8.7210 C.ar  1 UG1  -0.0000 
 12 CAL      7.0830     3.4760     7.6370 C.ar  1 UG1  -0.1500 
 13 CAM      6.8110     2.0130     9.9240 C.ar  1 UG1  -0.1500 
 14 CAN      7.0180     1.8520     5.1230 C.3   1 UG1   0.1756 
 15 CAO      8.0910     1.1020     4.3610 C.3   1 UG1  -0.1600 
 16 CAP      8.0570     1.3420     2.8430 C.3   1 UG1   0.1957 
 17 CAQ      5.7740     1.9870     2.9150 C.3   1 UG1   0.1957 
 18 CAR      5.6670     1.7610     4.4490 C.3   1 UG1  -0.1600 
 19 CAS      9.1810     7.1300    11.7260 C.3   1 UG1   0.0530 
 20 CAT      7.9870     7.9300    12.1760 C.3   1 UG1   0.4720 
 21 CAU      9.8250     8.5010    11.6070 C.3   1 UG1   0.4720 
 22 CAV      6.6730     1.6100    -0.4360 C.3   1 UG1   1.1252 
 23 NAW      6.9020     1.3380     6.5480 N.pl3 1 UG1   0.0476 
 24 NAX      6.7010     0.9380     2.4590 N.am  1 UG1  -0.8494 
 25 OAZ      7.5030    -0.7680     0.7960 O.2   1 UG1  -0.6500 
 26 SAY      6.5080     0.3550     1.0250 S.o2  1 UG1   1.3328 
 27 CBE      7.2620    -2.4290    12.5090 C.2   1 UG1   0.3538 
 28 CBH      6.6870     0.1140     8.3300 C.2   1 UG1  -0.0540 
 29 CBI      6.7420     0.0820     6.9730 C.2   1 UG1  -0.3016 
 30 CBK      8.9460     6.5010    10.3520 C.2   1 UG1   0.5770 
 31 NBF      8.1620    -1.5280    12.9080 N.am  1 UG1  -0.8000 
 32 NBJ      7.6760     6.1510    10.0870 N.am  1 UG1  -0.7301 
 33 NBM      9.0080     8.7980    12.8070 N.4   1 UG1  -0.8440 
 34 HBM1     9.3850     8.4530    13.6780 H     1 UG1   0.4500 
 35 HBM2     8.7410     9.7660    12.9150 H     1 UG1   0.4500 
 36 OBA      5.1190    -0.2540     0.9260 O.2   1 UG1  -0.6500 
 37 OBL      9.8800     6.3380     9.5720 O.2   1 UG1  -0.5700 
 38 SBG      6.7670    -3.7490    13.5650 S.2   1 UG1  -0.3800 
 39 FBB      5.7050     2.4770    -0.3190 F     1 UG1  -0.3400 
 40 FBC      7.8140     2.1250    -0.4150 F     1 UG1  -0.3400 
 41 FBD      6.5570     0.9270    -1.5180 F     1 UG1  -0.3400 
 42 HAA      5.1220    -4.0910     8.8170 H     1 UG1   0.1500 
 43 HAB      5.4830    -2.0210     7.5530 H     1 UG1   0.1500 
 44 HAD      7.4920    -0.3230    10.8950 H     1 UG1   0.1500 
 45 HAF      5.9390    -4.3010    11.1390 H     1 UG1   0.1500 
 46 HAH      6.9680     3.8900    10.9750 H     1 UG1   0.1500 
 47 HAI1     6.2860     5.9880     8.5400 H     1 UG1   0.0800 
 48 HAI2     7.9880     5.8020     8.0540 H     1 UG1   0.0800 
 49 HAL      7.1860     4.0260     6.7130 H     1 UG1   0.1500 
 50 HAM      6.6990     1.4280    10.8250 H     1 UG1   0.1500 
 51 HAN      7.3240     2.8980     5.1360 H     1 UG1   0.0800 
 52 HAO1     7.9600     0.0350     4.5430 H     1 UG1   0.0800 
 53 HAO2     9.0640     1.4180     4.7370 H     1 UG1   0.0800 
 54 HAP1     8.8030     0.7310     2.3360 H     1 UG1   0.0800 
 55 HAP2     8.2300     2.3930     2.6110 H     1 UG1   0.0800 
 56 HAQ1     6.1740     2.9770     2.6970 H     1 UG1   0.0800 
 57 HAQ2     4.8000     1.8760     2.4390 H     1 UG1   0.0800 
 58 HAR1     5.0090     2.5200     4.8730 H     1 UG1   0.0800 
 59 HAR2     5.2470     0.7720     4.6320 H     1 UG1   0.0800 
 60 HAS      9.6080     6.2940    12.2800 H     1 UG1  -0.0000 
 61 HAT1     7.3150     7.4200    12.8660 H     1 UG1  -0.0000 
 62 HAT2     7.4060     8.3940    11.3790 H     1 UG1  -0.0000 
 63 HAU1     9.5670     9.0660    10.7110 H     1 UG1  -0.0000 
 64 HAU2    10.9050     8.5280    11.7550 H     1 UG1  -0.0000 
 65 HBF1     8.5710    -1.5960    13.8290 H     1 UG1   0.3700 
 66 HBF2     8.4340    -0.7780    12.2890 H     1 UG1   0.3700 
 67 HBI      6.6700    -0.7980     6.3510 H     1 UG1   0.1500 
 68 HBJ      6.9780     6.3070    10.8000 H     1 UG1   0.3700 
@<TRIPOS>BOND
  1   1   2  ar  
  2   1   6  ar  
  3   1  42  1   
  4   2   3  ar  
  5   2  43  1   
  6   3   4  ar  
  7   3  28  1   
  8   4   5  ar  
  9   4  44  1   
 10   5   6  ar  
 11   5  27  1   
 12   6  45  1   
 13   7   8  ar  
 14   7   9  1   
 15   7  12  ar  
 16   8  13  ar  
 17   8  46  1   
 18   9  32  1   
 19   9  47  1   
 20   9  48  1   
 21  10  11  ar  
 22  10  12  ar  
 23  10  23  1   
 24  11  13  ar  
 25  11  28  1   
 26  12  49  1   
 27  13  50  1   
 28  14  15  1   
 29  14  18  1   
 30  14  23  1   
 31  14  51  1   
 32  15  16  1   
 33  15  52  1   
 34  15  53  1   
 35  16  24  1   
 36  16  54  1   
 37  16  55  1   
 38  17  18  1   
 39  17  24  1   
 40  17  56  1   
 41  17  57  1   
 42  18  58  1   
 43  18  59  1   
 44  19  20  1   
 45  19  21  1   
 46  19  30  1   
 47  19  60  1   
 48  20  33  1   
 49  20  61  1   
 50  20  62  1   
 51  21  33  1   
 52  21  63  1   
 53  21  64  1   
 54  22  26  1   
 55  22  39  1   
 56  22  40  1   
 57  22  41  1   
 58  23  29  1   
 59  24  26  am  
 60  25  26  2   
 61  26  36  2   
 62  27  31  am  
 63  27  38  2   
 64  28  29  2   
 65  29  67  1   
 66  30  32  am  
 67  30  37  2   
 68  31  65  1   
 69  31  66  1   
 70  32  68  1   
 71  33  34  1   
 72  33  35  1   
@<TRIPOS>SUBSTRUCTURE
  1 UG1  10 GROUP 4 A **** 0

# MOE 2022.02 (io_trps.svl 2020.11)
