# created with PyMOL 2.5.0
@<TRIPOS>MOLECULE
6WZW
39 44 1                 
SMALL
USER_CHARGES
@<TRIPOS>ATOM
1	 CAA	5.644	-3.267	9.281	C.2	1	UG72306	0.000	
2	 CAB	5.855	-2.088	8.565	C.2	1	UG72306	0.000	
3	 CAC	6.524	-0.999	9.104	C.2	1	UG72306	0.000	
4	 CAD	6.971	-1.148	10.432	C.2	1	UG72306	0.000	
5	 CAE	6.770	-2.324	11.185	C.2	1	UG72306	0.000	
6	 CAF	6.102	-3.386	10.589	C.2	1	UG72306	0.000	
7	 CAG	7.102	4.152	8.841	C.2	1	UG72306	0.000	
8	 CAH	6.961	3.402	10.011	C.2	1	UG72306	0.000	
9	 CAI	7.247	5.552	8.813	C.3	1	UG72306	0.000	
10	 CAJ	6.938	2.146	7.604	C.2	1	UG72306	0.000	
11	 CAK	6.806	1.400	8.721	C.2	1	UG72306	0.000	
12	 CAL	7.083	3.476	7.637	C.2	1	UG72306	0.000	
13	 CAM	6.811	2.013	9.924	C.2	1	UG72306	0.000	
14	 CAN	7.018	1.852	5.123	C.3	1	UG72306	0.000	
15	 CAO	8.091	1.102	4.361	C.3	1	UG72306	0.000	
16	 CAP	8.057	1.342	2.843	C.3	1	UG72306	0.000	
17	 CAQ	5.774	1.987	2.915	C.3	1	UG72306	0.000	
18	 CAR	5.667	1.761	4.449	C.3	1	UG72306	0.000	
19	 CAS	9.181	7.130	11.726	C.3	1	UG72306	0.000	
20	 CAT	7.987	7.930	12.176	C.3	1	UG72306	0.000	
21	 CAU	9.825	8.501	11.607	C.3	1	UG72306	0.000	
22	 CAV	6.673	1.610	-0.436	C.3	1	UG72306	0.000	
23	 NAW	6.902	1.338	6.548	N.2	1	UG72306	0.000	
24	 NAX	6.701	0.938	2.459	N.3	1	UG72306	0.000	
25	 OAZ	7.503	-0.768	0.796	O.2	1	UG72306	0.000	
26	 SAY	6.508	0.355	1.025	S.o2	1	UG72306	0.000	
27	 CBE	7.262	-2.429	12.509	C.2	1	UG72306	0.000	
28	 CBH	6.687	0.114	8.330	C.2	1	UG72306	0.000	
29	 CBI	6.742	0.082	6.973	C.2	1	UG72306	0.000	
30	 CBK	8.946	6.501	10.352	C.2	1	UG72306	0.000	
31	 NBF	8.162	-1.528	12.908	N.2	1	UG72306	0.000	
32	 NBJ	7.676	6.151	10.087	N.pl3	1	UG72306	0.000	
33	 NBM	9.008	8.798	12.807	N.3	1	UG72306	0.000	
34	 OBA	5.119	-0.254	0.926	O.2	1	UG72306	0.000	
35	 OBL	9.880	6.338	9.572	O.2	1	UG72306	0.000	
36	 SBG	6.767	-3.749	13.565	S.3	1	UG72306	0.000	
37	 FBB	5.705	2.477	-0.319	 F	1	UG72306	0.000	
38	 FBC	7.814	2.125	-0.415	 F	1	UG72306	0.000	
39	 FBD	6.557	0.927	-1.518	 F	1	UG72306	0.000	
@<TRIPOS>BOND
1 1 2 ar
2 1 6 ar
3 2 3 ar
4 3 4 ar
5 3 28 1
6 4 5 ar
7 5 6 ar
8 5 27 1
9 7 8 ar
10 7 9 1
11 7 12 ar
12 8 13 ar
13 9 32 1
14 10 11 ar
15 10 12 ar
16 10 23 ar
17 11 13 ar
18 11 28 ar
19 14 15 1
20 14 18 1
21 14 23 1
22 15 16 1
23 16 24 1
24 17 18 1
25 17 24 1
26 19 20 1
27 19 21 1
28 19 30 1
29 20 21 1
30 20 33 1
31 21 33 1
32 22 26 1
33 22 37 1
34 22 38 1
35 22 39 1
36 23 29 ar
37 24 26 1
38 25 26 2
39 26 34 2
40 27 31 2
41 27 36 1
42 28 29 ar
43 30 32 1
44 30 35 2
@<TRIPOS>SUBSTRUCTURE
1	UG72306	1	GROUP	1 A	UG7
