# created with PyMOL 2.4.0
@<TRIPOS>MOLECULE
2CL5.A
27 28 1                 
SMALL
USER_CHARGES
@<TRIPOS>ATOM
1	  C1	6.876	1.295	60.723	C.2	1	BIE1	0.083	
2	  N1	8.375	0.204	57.422	N.pl3	1	BIE1	0.907	
3	  O1	7.169	1.446	62.017	O.3	1	BIE1	-0.533	
4	  C2	7.753	0.737	59.773	C.2	1	BIE1	-0.171	
5	  O2	8.941	0.415	60.233	O.2	1	BIE1	-0.829	
6	  C3	7.376	0.620	58.410	C.2	1	BIE1	0.133	
7	  O3	9.316	-0.428	57.677	O.3	1	BIE1	-0.520	
8	  C4	6.112	1.036	57.977	C.2	1	BIE1	0.086	
9	  O4	8.230	0.806	56.353	O.2	1	BIE1	-0.520	
10	  C5	5.171	1.540	58.917	C.2	1	BIE1	-0.150	
11	  O5	5.797	-0.368	56.158	O.2	1	BIE1	-0.570	
12	  C6	5.516	1.691	60.272	C.2	1	BIE1	-0.150	
13	  C7	5.639	0.767	56.585	C.2	1	BIE1	0.398	
14	  C8	4.778	1.690	55.861	C.2	1	BIE1	0.086	
15	  C9	3.785	1.193	55.030	C.2	1	BIE1	-0.150	
16	 C10	2.960	2.061	54.375	C.2	1	BIE1	-0.150	
17	 C11	3.105	3.443	54.534	C.2	1	BIE1	-0.150	
18	 C12	4.087	3.943	55.397	C.2	1	BIE1	-0.150	
19	 C13	4.947	3.084	56.061	C.2	1	BIE1	-0.150	
20	  H1	8.057	1.179	62.266	 H	1	BIE1	0.450	
21	  H5	4.179	1.810	58.586	 H	1	BIE1	0.150	
22	  H6	4.801	2.090	60.977	 H	1	BIE1	0.150	
23	  H9	3.665	0.127	54.902	 H	1	BIE1	0.150	
24	 H10	2.187	1.676	53.727	 H	1	BIE1	0.150	
25	 H11	2.462	4.122	53.993	 H	1	BIE1	0.150	
26	 H12	4.175	5.009	55.547	 H	1	BIE1	0.150	
27	 H13	5.722	3.464	56.710	 H	1	BIE1	0.150	
@<TRIPOS>BOND
1 1 3 1
2 1 4 ar
3 1 12 ar
4 2 6 1
5 2 9 2
6 3 20 1
7 4 5 1
8 4 6 ar
9 6 8 ar
10 8 10 ar
11 8 13 1
12 10 12 ar
13 10 21 1
14 11 13 2
15 12 22 1
16 13 14 1
17 14 15 ar
18 14 19 ar
19 15 16 ar
20 15 23 1
21 16 17 ar
22 16 24 1
23 17 18 ar
24 17 25 1
25 18 19 ar
26 18 26 1
27 19 27 1
28 2 7 1
@<TRIPOS>SUBSTRUCTURE
1	BIE1	1	GROUP	1 A	BIE
