@<TRIPOS>MOLECULE
2CL5.A
27 28 1 0 0 
SMALL
USER_CHARGES


@<TRIPOS>ATOM
  1 C1       6.8760     1.2950    60.7230 C.ar  1 BIE   0.0825 
  2 N1       8.3750     0.2040    57.4220 N.pl3 1 BIE   0.9070 
  3 O1       7.1690     1.4460    62.0170 O.3   1 BIE  -0.5325 
  4 H1       8.0568     1.1785    62.2659 H     1 BIE   0.4500 
  5 C2       7.7530     0.7370    59.7730 C.ar  1 BIE  -0.1710 
  6 O2       8.9410     0.4150    60.2330 O.3   1 BIE  -0.8290 
  7 C3       7.3760     0.6200    58.4100 C.ar  1 BIE   0.1330 
  8 O3       9.3160    -0.4280    57.6770 O.2   1 BIE  -0.5200 
  9 C4       6.1120     1.0360    57.9770 C.ar  1 BIE   0.0862 
 10 O4       8.2300     0.8060    56.3530 O.2   1 BIE  -0.5200 
 11 C5       5.1710     1.5400    58.9170 C.ar  1 BIE  -0.1500 
 12 H5       4.1791     1.8101    58.5860 H     1 BIE   0.1500 
 13 O5       5.7970    -0.3680    56.1580 O.2   1 BIE  -0.5700 
 14 C6       5.5160     1.6910    60.2720 C.ar  1 BIE  -0.1500 
 15 H6       4.8013     2.0900    60.9766 H     1 BIE   0.1500 
 16 C7       5.6390     0.7670    56.5850 C.2   1 BIE   0.3976 
 17 C8       4.7780     1.6900    55.8610 C.ar  1 BIE   0.0862 
 18 C9       3.7850     1.1930    55.0300 C.ar  1 BIE  -0.1500 
 19 H9       3.6654     0.1273    54.9021 H     1 BIE   0.1500 
 20 C10      2.9600     2.0610    54.3750 C.ar  1 BIE  -0.1500 
 21 H10      2.1866     1.6763    53.7267 H     1 BIE   0.1500 
 22 C11      3.1050     3.4430    54.5340 C.ar  1 BIE  -0.1500 
 23 H11      2.4619     4.1215    53.9931 H     1 BIE   0.1500 
 24 C12      4.0870     3.9430    55.3970 C.ar  1 BIE  -0.1500 
 25 H12      4.1750     5.0090    55.5466 H     1 BIE   0.1500 
 26 C13      4.9470     3.0840    56.0610 C.ar  1 BIE  -0.1500 
 27 H13      5.7218     3.4637    56.7105 H     1 BIE   0.1500 
@<TRIPOS>BOND
  1   1   3  1   
  2   1   5  ar  
  3   1  14  ar  
  4   2   7  1   
  5   2   8  2   
  6   2  10  2   
  7   3   4  1   
  8   5   6  1   
  9   5   7  ar  
 10   7   9  ar  
 11   9  11  ar  
 12   9  16  1   
 13  11  12  1   
 14  11  14  ar  
 15  13  16  2   
 16  14  15  1   
 17  16  17  1   
 18  17  18  ar  
 19  17  26  ar  
 20  18  19  1   
 21  18  20  ar  
 22  20  21  1   
 23  20  22  ar  
 24  22  23  1   
 25  22  24  ar  
 26  24  25  1   
 27  24  26  ar  
 28  26  27  1   
@<TRIPOS>SUBSTRUCTURE
  1 BIE   9 GROUP 4 A **** 0

# MOE 2022.02 (io_trps.svl 2020.11)
