# created with PyMOL 2.5.0
@<TRIPOS>MOLECULE
2CL5
19 20 1                 
SMALL
USER_CHARGES
@<TRIPOS>ATOM
1	  C1	6.876	1.295	60.723	C.2	1	BIE1218	0.000	
2	  N1	8.375	0.204	57.422	N.2	1	BIE1218	0.000	
3	  O1	7.169	1.446	62.017	O.3	1	BIE1218	0.000	
4	  C2	7.753	0.737	59.773	C.2	1	BIE1218	0.000	
5	  O2	8.941	0.415	60.233	O.3	1	BIE1218	0.000	
6	  C3	7.376	0.620	58.410	C.2	1	BIE1218	0.000	
7	  O3	9.316	-0.428	57.677	O.2	1	BIE1218	0.000	
8	  C4	6.112	1.036	57.977	C.2	1	BIE1218	0.000	
9	  O4	8.230	0.806	56.353	O.2	1	BIE1218	0.000	
10	  C5	5.171	1.540	58.917	C.2	1	BIE1218	0.000	
11	  O5	5.797	-0.368	56.158	O.2	1	BIE1218	0.000	
12	  C6	5.516	1.691	60.272	C.2	1	BIE1218	0.000	
13	  C7	5.639	0.767	56.585	C.2	1	BIE1218	0.000	
14	  C8	4.778	1.690	55.861	C.2	1	BIE1218	0.000	
15	  C9	3.785	1.193	55.030	C.2	1	BIE1218	0.000	
16	 C10	2.960	2.061	54.375	C.2	1	BIE1218	0.000	
17	 C11	3.105	3.443	54.534	C.2	1	BIE1218	0.000	
18	 C12	4.087	3.943	55.397	C.2	1	BIE1218	0.000	
19	 C13	4.947	3.084	56.061	C.2	1	BIE1218	0.000	
@<TRIPOS>BOND
1 1 3 1
2 1 4 ar
3 1 12 ar
4 2 6 1
5 2 7 ar
6 2 9 ar
7 4 5 1
8 4 6 ar
9 6 8 ar
10 8 10 ar
11 8 13 1
12 10 12 ar
13 11 13 2
14 13 14 1
15 14 15 ar
16 14 19 ar
17 15 16 ar
18 16 17 ar
19 17 18 ar
20 18 19 ar
@<TRIPOS>SUBSTRUCTURE
1	BIE1218	1	GROUP	1 A	BIE
