# created with PyMOL 2.5.0
@<TRIPOS>MOLECULE
2CL5
27 29 1                 
SMALL
USER_CHARGES
@<TRIPOS>ATOM
1	   N	14.478	2.267	63.025	N.3	1	SAM1217	0.000	
2	  CA	14.125	3.612	62.528	C.3	1	SAM1217	0.000	
3	   C	13.579	4.450	63.666	C.2	1	SAM1217	0.000	
4	   O	12.860	3.894	64.509	O.co2	1	SAM1217	0.000	
5	  CB	13.136	3.532	61.406	C.3	1	SAM1217	0.000	
6	  CG	13.573	2.670	60.245	C.3	1	SAM1217	0.000	
7	  SD	12.477	2.867	58.807	S.3	1	SAM1217	0.000	
8	  CE	10.997	1.983	59.449	C.3	1	SAM1217	0.000	
9	 C5'	13.062	1.488	57.711	C.3	1	SAM1217	0.000	
10	 C4'	14.463	1.668	57.085	C.3	1	SAM1217	0.000	
11	 O4'	15.019	0.464	56.635	O.3	1	SAM1217	0.000	
12	 C3'	14.490	2.584	55.870	C.3	1	SAM1217	0.000	
13	 O3'	15.323	3.681	56.166	O.3	1	SAM1217	0.000	
14	 C2'	14.989	1.711	54.714	C.3	1	SAM1217	0.000	
15	 O2'	15.713	2.415	53.711	O.3	1	SAM1217	0.000	
16	 C1'	15.809	0.695	55.452	C.3	1	SAM1217	0.000	
17	 OXT	13.929	5.631	63.750	O.co2	1	SAM1217	0.000	
18	  N1	19.046	-3.190	54.618	N.2	1	SAM1217	0.000	
19	  C2	19.289	-1.979	55.201	C.2	1	SAM1217	0.000	
20	  N3	18.301	-1.033	55.287	N.2	1	SAM1217	0.000	
21	  C4	17.084	-1.373	54.818	C.2	1	SAM1217	0.000	
22	  C5	16.794	-2.587	54.251	C.2	1	SAM1217	0.000	
23	  C6	17.806	-3.542	54.123	C.2	1	SAM1217	0.000	
24	  N6	17.587	-4.725	53.553	N.pl3	1	SAM1217	0.000	
25	  N7	15.474	-2.580	53.893	N.2	1	SAM1217	0.000	
26	  C8	14.956	-1.404	54.220	C.2	1	SAM1217	0.000	
27	  N9	15.943	-0.618	54.809	N.2	1	SAM1217	0.000	
@<TRIPOS>BOND
1 1 2 1
2 2 3 1
3 2 5 1
4 3 4 ar
5 3 17 ar
6 5 6 1
7 6 7 1
8 7 8 1
9 7 9 1
10 9 10 1
11 10 11 1
12 10 12 1
13 11 16 1
14 12 13 1
15 12 14 1
16 14 15 1
17 14 16 1
18 16 27 1
19 18 19 ar
20 18 23 ar
21 19 20 ar
22 20 21 ar
23 21 22 ar
24 21 27 ar
25 22 23 ar
26 22 25 ar
27 23 24 1
28 25 26 ar
29 26 27 ar
@<TRIPOS>SUBSTRUCTURE
1	SAM1217	1	GROUP	1 A	SAM
