@<TRIPOS>MOLECULE
2CL5.A
51 53 1 0 0 
SMALL
USER_CHARGES


@<TRIPOS>ATOM
  1 N       14.4780     2.2670    63.0250 N.4   1 SAM  -0.8530 
  2 H1      13.6516     1.8154    63.3901 H     1 SAM   0.4500 
  3 H2      15.1683     2.3493    63.7577 H     1 SAM   0.4500 
  4 H3      14.8555     1.7164    62.2671 H     1 SAM   0.4500 
  5 CA      14.1250     3.6120    62.5280 C.3   1 SAM   0.3170 
  6 HA      15.0258     4.0858    62.1378 H     1 SAM   0.0800 
  7 C       13.5790     4.4500    63.6660 C.2   1 SAM   0.9060 
  8 O       12.8600     3.8940    64.5090 O.co2 1 SAM  -0.9000 
  9 CB      13.1360     3.5320    61.4060 C.3   1 SAM  -0.1600 
 10 HB1     12.9614     4.5414    61.0336 H     1 SAM   0.0800 
 11 HB2     12.2054     3.1245    61.8010 H     1 SAM   0.0800 
 12 CG      13.5730     2.6700    60.2450 C.3   1 SAM  -0.1525 
 13 HG1     13.5614     1.6257    60.5570 H     1 SAM   0.0800 
 14 HG2     14.5859     2.9521    59.9578 H     1 SAM   0.0800 
 15 SD      12.4770     2.8670    58.8070 S.3   1 SAM   0.9775 
 16 CE      10.9970     1.9830    59.4490 C.3   1 SAM  -0.2325 
 17 HE1     10.4644     2.6269    60.1488 H     1 SAM   0.0800 
 18 HE2     11.3107     1.0725    59.9596 H     1 SAM   0.0800 
 19 HE3     10.3390     1.7258    58.6190 H     1 SAM   0.0800 
 20 C5'     13.0620     1.4880    57.7110 C.3   1 SAM  -0.1525 
 21 H5'1    12.3445     1.3814    56.8975 H     1 SAM   0.0800 
 22 H5'2    13.0769     0.5738    58.3045 H     1 SAM   0.0800 
 23 C4'     14.4630     1.6680    57.0850 C.3   1 SAM   0.2000 
 24 H4'     15.0306     2.0998    57.9093 H     1 SAM   0.0800 
 25 O4'     15.0190     0.4640    56.6350 O.3   1 SAM  -0.5600 
 26 C3'     14.4900     2.5840    55.8700 C.3   1 SAM   0.2000 
 27 H3'     13.5231     3.0066    55.5969 H     1 SAM   0.0800 
 28 O3'     15.3230     3.6810    56.1660 O.3   1 SAM  -0.6800 
 29 H3'     15.3779     4.2250    55.3769 H     1 SAM   0.4000 
 30 C2'     14.9890     1.7110    54.7140 C.3   1 SAM   0.2000 
 31 H2'     14.1838     1.2840    54.1161 H     1 SAM   0.0800 
 32 O2'     15.7130     2.4150    53.7110 O.3   1 SAM  -0.6800 
 33 H2'     16.0014     1.7739    53.0573 H     1 SAM   0.4000 
 34 C1'     15.8090     0.6950    55.4520 C.3   1 SAM   0.5691 
 35 H1'     16.8241     1.0765    55.5624 H     1 SAM   0.0800 
 36 OXT     13.9290     5.6310    63.7500 O.co2 1 SAM  -0.9000 
 37 N1      19.0460    -3.1900    54.6180 N.2   1 SAM  -0.6610 
 38 C2      19.2890    -1.9790    55.2010 C.2   1 SAM   0.6010 
 39 H2      20.2701    -1.7646    55.5984 H     1 SAM   0.0600 
 40 N3      18.3010    -1.0330    55.2870 N.2   1 SAM  -0.6610 
 41 C4      17.0840    -1.3730    54.8180 C.2   1 SAM   0.5000 
 42 C5      16.7940    -2.5870    54.2510 C.2   1 SAM   0.4500 
 43 C6      17.8060    -3.5420    54.1230 C.2   1 SAM   0.6110 
 44 N6      17.5870    -4.7250    53.5530 N.2   1 SAM  -0.2000 
 45 H62     18.3388    -5.3949    53.4749 H     1 SAM   0.4000 
 46 H61     16.6690    -4.9526    53.1986 H     1 SAM   0.4000 
 47 N7      15.4740    -2.5800    53.8930 N.2   1 SAM  -0.6960 
 48 C8      14.9560    -1.4040    54.2200 C.3   1 SAM   0.4551 
 49 H81     14.1369    -1.5493    54.9243 H     1 SAM   0.0800 
 50 H82     14.5814    -0.9086    53.3242 H     1 SAM   0.0800 
 51 N9      15.9430    -0.6180    54.8090 N.pl3 1 SAM  -0.7882 
@<TRIPOS>BOND
  1   1   2  1   
  2   1   3  1   
  3   1   4  1   
  4   1   5  1   
  5   5   6  1   
  6   5   7  1   
  7   5   9  1   
  8   7   8  ar  
  9   7  36  ar  
 10   9  10  1   
 11   9  11  1   
 12   9  12  1   
 13  12  13  1   
 14  12  14  1   
 15  12  15  1   
 16  15  16  1   
 17  15  20  1   
 18  16  17  1   
 19  16  18  1   
 20  16  19  1   
 21  20  21  1   
 22  20  22  1   
 23  20  23  1   
 24  23  24  1   
 25  23  25  1   
 26  23  26  1   
 27  25  34  1   
 28  26  27  1   
 29  26  28  1   
 30  26  30  1   
 31  28  29  1   
 32  30  31  1   
 33  30  32  1   
 34  30  34  1   
 35  32  33  1   
 36  34  35  1   
 37  34  51  1   
 38  37  38  2   
 39  37  43  1   
 40  38  39  1   
 41  38  40  1   
 42  40  41  2   
 43  41  42  1   
 44  41  51  1   
 45  42  43  1   
 46  42  47  2   
 47  43  44  2   
 48  44  45  1   
 49  44  46  1   
 50  47  48  1   
 51  48  49  1   
 52  48  50  1   
 53  48  51  1   
@<TRIPOS>SUBSTRUCTURE
  1 SAM  25 GROUP 4 A **** 0

# MOE 2022.02 (io_trps.svl 2020.11)
