# created with PyMOL 2.4.0
@<TRIPOS>MOLECULE
temp
50 52 1                 
SMALL
USER_CHARGES
@<TRIPOS>ATOM
1	   N	14.478	2.267	63.025	N.4	1	SAM1	0.000	
2	  CA	14.125	3.612	62.528	C.3	1	SAM1	0.000	
3	   C	13.579	4.450	63.666	C.2	1	SAM1	0.000	
4	   O	12.860	3.894	64.509	O.co2	1	SAM1	0.000	
5	  CB	13.136	3.532	61.406	C.3	1	SAM1	0.000	
6	  CG	13.573	2.670	60.245	C.3	1	SAM1	0.000	
7	  SD	12.477	2.867	58.807	S.3	1	SAM1	0.000	
8	  CE	10.997	1.983	59.449	C.3	1	SAM1	0.000	
9	 C5'	13.062	1.488	57.711	C.3	1	SAM1	0.000	
10	 C4'	14.463	1.668	57.085	C.3	1	SAM1	0.000	
11	 O4'	15.019	0.464	56.635	O.3	1	SAM1	0.000	
12	 C3'	14.490	2.584	55.870	C.3	1	SAM1	0.000	
13	 O3'	15.323	3.681	56.166	O.3	1	SAM1	0.000	
14	 C2'	14.989	1.711	54.714	C.3	1	SAM1	0.000	
15	 O2'	15.713	2.415	53.711	O.3	1	SAM1	0.000	
16	 C1'	15.809	0.695	55.452	C.3	1	SAM1	0.000	
17	 OXT	13.929	5.631	63.750	O.co2	1	SAM1	0.000	
18	  N1	19.046	-3.190	54.618	N.2	1	SAM1	0.000	
19	  C2	19.289	-1.979	55.201	C.2	1	SAM1	0.000	
20	  N3	18.301	-1.033	55.287	N.2	1	SAM1	0.000	
21	  C4	17.084	-1.373	54.818	C.2	1	SAM1	0.000	
22	  C5	16.794	-2.587	54.251	C.2	1	SAM1	0.000	
23	  C6	17.806	-3.542	54.123	C.2	1	SAM1	0.000	
24	  N6	17.587	-4.725	53.553	N.pl3	1	SAM1	0.000	
25	  N7	15.474	-2.580	53.893	N.2	1	SAM1	0.000	
26	  C8	14.956	-1.404	54.220	C.2	1	SAM1	0.000	
27	  N9	15.943	-0.618	54.809	N.2	1	SAM1	0.000	
28	  HA	15.026	4.086	62.138	 H	1	SAM1	0.000	
29	 HB1	12.961	4.541	61.034	 H	1	SAM1	0.000	
30	 HB2	12.205	3.125	61.801	 H	1	SAM1	0.000	
31	 HG1	13.561	1.626	60.557	 H	1	SAM1	0.000	
32	 HG2	14.586	2.952	59.958	 H	1	SAM1	0.000	
33	 HE1	10.464	2.627	60.149	 H	1	SAM1	0.000	
34	 HE2	11.311	1.072	59.960	 H	1	SAM1	0.000	
35	 HE3	10.339	1.726	58.619	 H	1	SAM1	0.000	
36	  H1	13.652	1.815	63.390	 H	1	SAM1	0.000	
37	  H2	15.168	2.349	63.758	 H	1	SAM1	0.000	
38	  H2	20.270	-1.765	55.598	 H	1	SAM1	0.000	
39	  H3	14.856	1.716	62.267	 H	1	SAM1	0.000	
40	  H8	13.932	-1.104	54.056	 H	1	SAM1	0.000	
41	 H1'	16.824	1.077	55.562	 H	1	SAM1	0.000	
42	 H2'	14.184	1.284	54.116	 H	1	SAM1	0.000	
43	 H2'	15.119	3.063	53.325	 H	1	SAM1	0.000	
44	 H3'	13.523	3.007	55.597	 H	1	SAM1	0.000	
45	 H3'	15.378	4.225	55.377	 H	1	SAM1	0.000	
46	 H4'	15.031	2.100	57.909	 H	1	SAM1	0.000	
47	 H61	16.669	-4.953	53.199	 H	1	SAM1	0.000	
48	 H62	18.339	-5.395	53.475	 H	1	SAM1	0.000	
49	H5'1	12.344	1.381	56.897	 H	1	SAM1	0.000	
50	H5'2	13.077	0.574	58.305	 H	1	SAM1	0.000	
@<TRIPOS>BOND
1 1 2 1
2 1 36 1
3 1 37 1
4 1 39 1
5 2 3 1
6 2 5 1
7 2 28 1
8 3 4 ar
9 3 17 ar
10 5 6 1
11 5 29 1
12 5 30 1
13 6 7 1
14 6 31 1
15 6 32 1
16 7 8 1
17 7 9 1
18 8 33 1
19 8 34 1
20 8 35 1
21 9 10 1
22 9 49 1
23 9 50 1
24 10 11 1
25 10 12 1
26 10 46 1
27 11 16 1
28 12 13 1
29 12 14 1
30 12 44 1
31 13 45 1
32 14 15 1
33 14 16 1
34 14 42 1
35 15 43 1
36 16 27 1
37 16 41 1
38 18 19 ar
39 18 23 ar
40 19 20 ar
41 19 38 1
42 20 21 ar
43 21 22 ar
44 21 27 ar
45 22 23 ar
46 22 25 ar
47 23 24 1
48 24 47 1
49 24 48 1
50 25 26 ar
51 26 27 ar
52 26 40 1
@<TRIPOS>SUBSTRUCTURE
1	SAM1	1	GROUP	1 A	SAM
