@<TRIPOS>MOLECULE
4YVG.A
51 53 1 0 0 
SMALL
USER_CHARGES


@<TRIPOS>ATOM
  1 N       47.8340     9.3900    14.1270 N.4   1 SAM  -0.8530 
  2 H1      48.1681     9.8482    13.2912 H     1 SAM   0.4500 
  3 H2      48.5678     9.3785    14.8209 H     1 SAM   0.4500 
  4 H3      47.0357     9.8913    14.4895 H     1 SAM   0.4500 
  5 CA      47.4430     8.0150    13.8070 C.3   1 SAM   0.3170 
  6 HA      47.0987     7.5977    14.7533 H     1 SAM   0.0800 
  7 C       48.5950     7.1400    13.2310 C.2   1 SAM   0.9060 
  8 O       48.7100     5.9120    13.4740 O.co2 1 SAM  -0.9000 
  9 CB      46.3820     8.0310    12.6860 C.3   1 SAM  -0.1600 
 10 HB1     46.8786     7.7687    11.7519 H     1 SAM   0.0800 
 11 HB2     45.9860     9.0440    12.6149 H     1 SAM   0.0800 
 12 CG      45.1950     7.0730    12.8740 C.3   1 SAM  -0.1525 
 13 HG1     44.4867     7.4810    13.5951 H     1 SAM   0.0800 
 14 HG2     45.5426     6.0987    13.2175 H     1 SAM   0.0800 
 15 SD      44.4320     6.9320    11.2570 S.3   1 SAM   0.9775 
 16 CE      43.7850     8.6100    11.2230 C.3   1 SAM  -0.2325 
 17 HE1     44.5875     9.3038    10.9725 H     1 SAM   0.0800 
 18 HE2     43.3787     8.8627    12.2024 H     1 SAM   0.0800 
 19 HE3     42.9967     8.6803    10.4735 H     1 SAM   0.0800 
 20 C5'     42.8730     6.0740    11.6920 C.3   1 SAM  -0.1525 
 21 H5'1    42.1005     6.4577    11.0256 H     1 SAM   0.0800 
 22 H5'2    42.6343     6.3467    12.7200 H     1 SAM   0.0800 
 23 C4'     42.8190     4.5480    11.6090 C.3   1 SAM   0.2000 
 24 H4'     41.8358     4.1577    11.8719 H     1 SAM   0.0800 
 25 O4'     43.1510     4.1610    10.2700 O.3   1 SAM  -0.5600 
 26 C3'     43.8790     4.0360    12.5390 C.3   1 SAM   0.2000 
 27 H3'     44.2602     4.8338    13.1764 H     1 SAM   0.0800 
 28 O3'     43.3880     3.0180    13.3630 O.3   1 SAM  -0.6800 
 29 H3'     44.1163     2.7072    13.9057 H     1 SAM   0.4000 
 30 C2'     44.8810     3.4180    11.6320 C.3   1 SAM   0.2000 
 31 H2'     45.7158     4.0703    11.3757 H     1 SAM   0.0800 
 32 O2'     45.8140     2.4350    12.2410 O.3   1 SAM  -0.6800 
 33 H2'     46.4211     2.1475    11.5551 H     1 SAM   0.4000 
 34 C1'     44.1120     3.1480    10.2800 C.3   1 SAM   0.5691 
 35 H1'     43.6985     2.1440    10.1844 H     1 SAM   0.0800 
 36 OXT     49.4340     7.6350    12.4520 O.co2 1 SAM  -0.9000 
 37 N1      47.3740     0.9760     6.8750 N.2   1 SAM  -0.6610 
 38 C2      46.5350     0.4050     7.7960 C.2   1 SAM   0.6010 
 39 H2      46.5363    -0.6721     7.8753 H     1 SAM   0.0600 
 40 N3      45.6870     1.1090     8.6310 N.2   1 SAM  -0.6610 
 41 C4      45.7290     2.4330     8.5130 C.2   1 SAM   0.5000 
 42 C5      46.5210     3.0400     7.5430 C.2   1 SAM   0.4500 
 43 C6      47.3750     2.3230     6.7290 C.2   1 SAM   0.6110 
 44 N6      48.2110     2.9130     5.8350 N.2   1 SAM  -0.2000 
 45 H62     48.8180     2.3457     5.2607 H     1 SAM   0.4000 
 46 H61     48.2254     3.9189     5.7447 H     1 SAM   0.4000 
 47 N7      46.3100     4.3890     7.6610 N.2   1 SAM  -0.6960 
 48 C8      45.4360     4.6340     8.6450 C.3   1 SAM   0.4551 
 49 H81     44.5625     5.1523     8.2495 H     1 SAM   0.0800 
 50 H82     45.9029     5.2459     9.4168 H     1 SAM   0.0800 
 51 N9      45.0630     3.4040     9.1720 N.pl3 1 SAM  -0.7882 
@<TRIPOS>BOND
  1   1   2  1   
  2   1   3  1   
  3   1   4  1   
  4   1   5  1   
  5   5   6  1   
  6   5   7  1   
  7   5   9  1   
  8   7   8  ar  
  9   7  36  ar  
 10   9  10  1   
 11   9  11  1   
 12   9  12  1   
 13  12  13  1   
 14  12  14  1   
 15  12  15  1   
 16  15  16  1   
 17  15  20  1   
 18  16  17  1   
 19  16  18  1   
 20  16  19  1   
 21  20  21  1   
 22  20  22  1   
 23  20  23  1   
 24  23  24  1   
 25  23  25  1   
 26  23  26  1   
 27  25  34  1   
 28  26  27  1   
 29  26  28  1   
 30  26  30  1   
 31  28  29  1   
 32  30  31  1   
 33  30  32  1   
 34  30  34  1   
 35  32  33  1   
 36  34  35  1   
 37  34  51  1   
 38  37  38  2   
 39  37  43  1   
 40  38  39  1   
 41  38  40  1   
 42  40  41  2   
 43  41  42  1   
 44  41  51  1   
 45  42  43  1   
 46  42  47  2   
 47  43  44  2   
 48  44  45  1   
 49  44  46  1   
 50  47  48  1   
 51  48  49  1   
 52  48  50  1   
 53  48  51  1   
@<TRIPOS>SUBSTRUCTURE
  1 SAM  30 GROUP 4 A **** 0

# MOE 2022.02 (io_trps.svl 2020.11)
