# created with PyMOL 2.5.0
@<TRIPOS>MOLECULE
4YVG
27 29 1                 
SMALL
USER_CHARGES
@<TRIPOS>ATOM
1	   N	47.834	9.390	14.127	N.3	1	SAM301	0.000	
2	  CA	47.443	8.015	13.807	C.3	1	SAM301	0.000	
3	   C	48.595	7.140	13.231	C.2	1	SAM301	0.000	
4	   O	48.710	5.912	13.474	O.co2	1	SAM301	0.000	
5	  CB	46.382	8.031	12.686	C.3	1	SAM301	0.000	
6	  CG	45.195	7.073	12.874	C.3	1	SAM301	0.000	
7	  SD	44.432	6.932	11.257	S.3	1	SAM301	0.000	
8	  CE	43.785	8.610	11.223	C.3	1	SAM301	0.000	
9	 C5'	42.873	6.074	11.692	C.3	1	SAM301	0.000	
10	 C4'	42.819	4.548	11.609	C.3	1	SAM301	0.000	
11	 O4'	43.151	4.161	10.270	O.3	1	SAM301	0.000	
12	 C3'	43.879	4.036	12.539	C.3	1	SAM301	0.000	
13	 O3'	43.388	3.018	13.363	O.3	1	SAM301	0.000	
14	 C2'	44.881	3.418	11.632	C.3	1	SAM301	0.000	
15	 O2'	45.814	2.435	12.241	O.3	1	SAM301	0.000	
16	 C1'	44.112	3.148	10.280	C.3	1	SAM301	0.000	
17	 OXT	49.434	7.635	12.452	O.co2	1	SAM301	0.000	
18	  N1	47.374	0.976	6.875	N.2	1	SAM301	0.000	
19	  C2	46.535	0.405	7.796	C.2	1	SAM301	0.000	
20	  N3	45.687	1.109	8.631	N.2	1	SAM301	0.000	
21	  C4	45.729	2.433	8.513	C.2	1	SAM301	0.000	
22	  C5	46.521	3.040	7.543	C.2	1	SAM301	0.000	
23	  C6	47.375	2.323	6.729	C.2	1	SAM301	0.000	
24	  N6	48.211	2.913	5.835	N.pl3	1	SAM301	0.000	
25	  N7	46.310	4.389	7.661	N.2	1	SAM301	0.000	
26	  C8	45.436	4.634	8.645	C.2	1	SAM301	0.000	
27	  N9	45.063	3.404	9.172	N.2	1	SAM301	0.000	
@<TRIPOS>BOND
1 1 2 1
2 2 3 1
3 2 5 1
4 3 4 ar
5 3 17 ar
6 5 6 1
7 6 7 1
8 7 8 1
9 7 9 1
10 9 10 1
11 10 11 1
12 10 12 1
13 11 16 1
14 12 13 1
15 12 14 1
16 14 15 1
17 14 16 1
18 16 27 1
19 18 19 ar
20 18 23 ar
21 19 20 ar
22 20 21 ar
23 21 22 ar
24 21 27 ar
25 22 23 ar
26 22 25 ar
27 23 24 1
28 25 26 ar
29 26 27 ar
@<TRIPOS>SUBSTRUCTURE
1	SAM301	1	GROUP	1 A	SAM
