# created with PyMOL 2.4.0
@<TRIPOS>MOLECULE
temp
50 52 1                 
SMALL
USER_CHARGES
@<TRIPOS>ATOM
1	   N	47.834	9.390	14.127	N.4	1	SAM1	0.000	
2	  CA	47.443	8.015	13.807	C.3	1	SAM1	0.000	
3	   C	48.595	7.140	13.231	C.2	1	SAM1	0.000	
4	   O	48.710	5.912	13.474	O.co2	1	SAM1	0.000	
5	  CB	46.382	8.031	12.686	C.3	1	SAM1	0.000	
6	  CG	45.195	7.073	12.874	C.3	1	SAM1	0.000	
7	  SD	44.432	6.932	11.257	S.3	1	SAM1	0.000	
8	  CE	43.785	8.610	11.223	C.3	1	SAM1	0.000	
9	 C5'	42.873	6.074	11.692	C.3	1	SAM1	0.000	
10	 C4'	42.819	4.548	11.609	C.3	1	SAM1	0.000	
11	 O4'	43.151	4.161	10.270	O.3	1	SAM1	0.000	
12	 C3'	43.879	4.036	12.539	C.3	1	SAM1	0.000	
13	 O3'	43.388	3.018	13.363	O.3	1	SAM1	0.000	
14	 C2'	44.881	3.418	11.632	C.3	1	SAM1	0.000	
15	 O2'	45.814	2.435	12.241	O.3	1	SAM1	0.000	
16	 C1'	44.112	3.148	10.280	C.3	1	SAM1	0.000	
17	 OXT	49.434	7.635	12.452	O.co2	1	SAM1	0.000	
18	  N1	47.374	0.976	6.875	N.2	1	SAM1	0.000	
19	  C2	46.535	0.405	7.796	C.2	1	SAM1	0.000	
20	  N3	45.687	1.109	8.631	N.2	1	SAM1	0.000	
21	  C4	45.729	2.433	8.513	C.2	1	SAM1	0.000	
22	  C5	46.521	3.040	7.543	C.2	1	SAM1	0.000	
23	  C6	47.375	2.323	6.729	C.2	1	SAM1	0.000	
24	  N6	48.211	2.913	5.835	N.pl3	1	SAM1	0.000	
25	  N7	46.310	4.389	7.661	N.2	1	SAM1	0.000	
26	  C8	45.436	4.634	8.645	C.2	1	SAM1	0.000	
27	  N9	45.063	3.404	9.172	N.2	1	SAM1	0.000	
28	  HA	47.099	7.598	14.753	 H	1	SAM1	0.000	
29	 HB1	46.879	7.769	11.752	 H	1	SAM1	0.000	
30	 HB2	45.986	9.044	12.615	 H	1	SAM1	0.000	
31	 HG1	44.487	7.481	13.595	 H	1	SAM1	0.000	
32	 HG2	45.543	6.099	13.217	 H	1	SAM1	0.000	
33	 HE1	44.588	9.304	10.972	 H	1	SAM1	0.000	
34	 HE2	43.379	8.863	12.202	 H	1	SAM1	0.000	
35	 HE3	42.997	8.680	10.474	 H	1	SAM1	0.000	
36	  H1	48.168	9.848	13.291	 H	1	SAM1	0.000	
37	  H2	48.568	9.378	14.821	 H	1	SAM1	0.000	
38	  H2	46.536	-0.672	7.875	 H	1	SAM1	0.000	
39	  H3	47.036	9.891	14.490	 H	1	SAM1	0.000	
40	  H8	45.087	5.604	8.968	 H	1	SAM1	0.000	
41	 H1'	43.699	2.144	10.184	 H	1	SAM1	0.000	
42	 H2'	45.716	4.070	11.376	 H	1	SAM1	0.000	
43	 H2'	45.289	1.702	12.570	 H	1	SAM1	0.000	
44	 H3'	44.260	4.834	13.176	 H	1	SAM1	0.000	
45	 H3'	44.116	2.707	13.906	 H	1	SAM1	0.000	
46	 H4'	41.836	4.158	11.872	 H	1	SAM1	0.000	
47	 H61	48.225	3.919	5.745	 H	1	SAM1	0.000	
48	 H62	48.818	2.346	5.261	 H	1	SAM1	0.000	
49	H5'1	42.100	6.458	11.026	 H	1	SAM1	0.000	
50	H5'2	42.634	6.347	12.720	 H	1	SAM1	0.000	
@<TRIPOS>BOND
1 1 2 1
2 1 36 1
3 1 37 1
4 1 39 1
5 2 3 1
6 2 5 1
7 2 28 1
8 3 4 ar
9 3 17 ar
10 5 6 1
11 5 29 1
12 5 30 1
13 6 7 1
14 6 31 1
15 6 32 1
16 7 8 1
17 7 9 1
18 8 33 1
19 8 34 1
20 8 35 1
21 9 10 1
22 9 49 1
23 9 50 1
24 10 11 1
25 10 12 1
26 10 46 1
27 11 16 1
28 12 13 1
29 12 14 1
30 12 44 1
31 13 45 1
32 14 15 1
33 14 16 1
34 14 42 1
35 15 43 1
36 16 27 1
37 16 41 1
38 18 19 ar
39 18 23 ar
40 19 20 ar
41 19 38 1
42 20 21 ar
43 21 22 ar
44 21 27 ar
45 22 23 ar
46 22 25 ar
47 23 24 1
48 24 47 1
49 24 48 1
50 25 26 ar
51 26 27 ar
52 26 40 1
@<TRIPOS>SUBSTRUCTURE
1	SAM1	1	GROUP	1 A	SAM
