@<TRIPOS>MOLECULE
5EIF.A
19 19 1 0 0 
SMALL
USER_CHARGES


@<TRIPOS>ATOM
  1 CAA     24.3470    43.0600   -17.9870 C.3   1 Q4M  -0.0965 
  2 HAA1    24.0329    42.3485   -18.7507 H     1 Q4M   0.0800 
  3 HAA2    25.3008    42.7429   -17.5653 H     1 Q4M   0.0800 
  4 HAA3    24.4580    44.0478   -18.4343 H     1 Q4M   0.0800 
  5 CAE     22.1620    42.2760   -16.9650 C.ar  1 Q4M  -0.1500 
  6 HAE     22.0308    41.6087   -17.8040 H     1 Q4M   0.1500 
  7 CAF     21.2100    42.3250   -15.9360 C.ar  1 Q4M  -0.1500 
  8 HAF     20.3257    41.7067   -15.9806 H     1 Q4M   0.1500 
  9 CAG     23.5160    43.9690   -15.8160 C.ar  1 Q4M  -0.1500 
 10 HAG     24.3974    44.5928   -15.7962 H     1 Q4M   0.1500 
 11 CAH     20.3870    43.1900   -13.8040 C.2   1 Q4M   0.9790 
 12 CAI     23.2980    43.1170   -16.8840 C.ar  1 Q4M  -0.1435 
 13 CAJ     22.5820    44.0260   -14.7430 C.ar  1 Q4M   0.1000 
 14 CAK     21.4220    43.1980   -14.8330 C.ar  1 Q4M  -0.1790 
 15 NAB     22.8460    44.8970   -13.6850 N.pl3 1 Q4M  -0.9000 
 16 HAB1    22.1944    44.9705   -12.9168 H     1 Q4M   0.4000 
 17 HAB2    23.6886    45.4538   -13.6875 H     1 Q4M   0.4000 
 18 OAC     19.1880    42.8700   -14.0060 O.co2 1 Q4M  -0.9000 
 19 OAD     20.7210    43.5650   -12.5490 O.co2 1 Q4M  -0.9000 
@<TRIPOS>BOND
  1   1   2  1   
  2   1   3  1   
  3   1   4  1   
  4   1  12  1   
  5   5   6  1   
  6   5   7  ar  
  7   5  12  ar  
  8   7   8  1   
  9   7  14  ar  
 10   9  10  1   
 11   9  12  ar  
 12   9  13  ar  
 13  11  14  1   
 14  11  18  ar  
 15  11  19  ar  
 16  13  14  ar  
 17  13  15  1   
 18  15  16  1   
 19  15  17  1   
@<TRIPOS>SUBSTRUCTURE
  1 Q4M  14 GROUP 4 A **** 0

# MOE 2022.02 (io_trps.svl 2020.11)
