# created with PyMOL 2.5.0
@<TRIPOS>MOLECULE
5EIF
11 11 1                 
SMALL
USER_CHARGES
@<TRIPOS>ATOM
1	 CAA	24.347	43.060	-17.987	C.3	1	4M0302	0.000	
2	 CAE	22.162	42.276	-16.965	C.2	1	4M0302	0.000	
3	 CAF	21.210	42.325	-15.936	C.2	1	4M0302	0.000	
4	 CAG	23.516	43.969	-15.816	C.2	1	4M0302	0.000	
5	 CAH	20.387	43.190	-13.804	C.2	1	4M0302	0.000	
6	 CAI	23.298	43.117	-16.884	C.2	1	4M0302	0.000	
7	 CAJ	22.582	44.026	-14.743	C.2	1	4M0302	0.000	
8	 CAK	21.422	43.198	-14.833	C.2	1	4M0302	0.000	
9	 NAB	22.846	44.897	-13.685	N.pl3	1	4M0302	0.000	
10	 OAC	19.188	42.870	-14.006	O.co2	1	4M0302	0.000	
11	 OAD	20.721	43.565	-12.549	O.co2	1	4M0302	0.000	
@<TRIPOS>BOND
1 1 6 1
2 2 3 ar
3 2 6 ar
4 3 8 ar
5 4 6 ar
6 4 7 ar
7 5 8 1
8 5 10 ar
9 5 11 ar
10 7 8 ar
11 7 9 1
@<TRIPOS>SUBSTRUCTURE
1	4M0302	1	GROUP	1 A	4M0
