# created with PyMOL 2.4.0
@<TRIPOS>MOLECULE
temp
50 52 1                 
SMALL
USER_CHARGES
@<TRIPOS>ATOM
1	   N	38.130	43.548	-7.031	N.4	1	SAM1	0.000	
2	  CA	37.196	44.642	-7.443	C.3	1	SAM1	0.000	
3	   C	37.974	45.782	-8.115	C.2	1	SAM1	0.000	
4	   O	39.218	45.659	-8.179	O.co2	1	SAM1	0.000	
5	  CB	36.379	45.116	-6.239	C.3	1	SAM1	0.000	
6	  CG	35.373	43.988	-5.889	C.3	1	SAM1	0.000	
7	  SD	34.239	44.499	-4.599	S.3	1	SAM1	0.000	
8	  CE	35.187	44.358	-3.116	C.3	1	SAM1	0.000	
9	 C5'	33.252	42.994	-4.458	C.3	1	SAM1	0.000	
10	 C4'	32.239	42.960	-5.632	C.3	1	SAM1	0.000	
11	 O4'	31.541	41.701	-5.517	O.3	1	SAM1	0.000	
12	 C3'	31.180	44.068	-5.552	C.3	1	SAM1	0.000	
13	 O3'	31.232	44.857	-6.735	O.3	1	SAM1	0.000	
14	 C2'	29.855	43.300	-5.388	C.3	1	SAM1	0.000	
15	 O2'	28.817	43.879	-6.170	O.3	1	SAM1	0.000	
16	 C1'	30.218	41.932	-5.961	C.3	1	SAM1	0.000	
17	 OXT	37.319	46.751	-8.568	O.co2	1	SAM1	0.000	
18	  N1	27.905	37.480	-7.155	N.2	1	SAM1	0.000	
19	  C2	28.650	38.324	-7.886	C.2	1	SAM1	0.000	
20	  N3	29.204	39.490	-7.521	N.2	1	SAM1	0.000	
21	  C4	28.946	39.757	-6.227	C.2	1	SAM1	0.000	
22	  C5	28.200	38.981	-5.350	C.2	1	SAM1	0.000	
23	  C6	27.638	37.789	-5.865	C.2	1	SAM1	0.000	
24	  N6	26.784	37.018	-5.176	N.pl3	1	SAM1	0.000	
25	  N7	28.160	39.563	-4.093	N.2	1	SAM1	0.000	
26	  C8	28.858	40.664	-4.236	C.2	1	SAM1	0.000	
27	  N9	29.378	40.838	-5.494	N.2	1	SAM1	0.000	
28	  HA	36.490	44.262	-8.181	 H	1	SAM1	0.000	
29	 HB1	35.841	46.030	-6.490	 H	1	SAM1	0.000	
30	 HB2	37.038	45.303	-5.392	 H	1	SAM1	0.000	
31	 HG1	35.926	43.113	-5.548	 H	1	SAM1	0.000	
32	 HG2	34.802	43.732	-6.782	 H	1	SAM1	0.000	
33	 HE1	35.861	45.210	-3.033	 H	1	SAM1	0.000	
34	 HE2	35.768	43.436	-3.143	 H	1	SAM1	0.000	
35	 HE3	34.517	44.340	-2.257	 H	1	SAM1	0.000	
36	  H1	38.783	43.903	-6.347	 H	1	SAM1	0.000	
37	  H2	38.636	43.215	-7.839	 H	1	SAM1	0.000	
38	  H2	28.828	38.023	-8.908	 H	1	SAM1	0.000	
39	  H3	37.601	42.787	-6.629	 H	1	SAM1	0.000	
40	  H8	29.010	41.371	-3.434	 H	1	SAM1	0.000	
41	 H1'	30.089	41.952	-7.043	 H	1	SAM1	0.000	
42	 H2'	29.488	43.290	-4.362	 H	1	SAM1	0.000	
43	 H2'	28.661	44.765	-5.835	 H	1	SAM1	0.000	
44	 H3'	31.321	44.771	-4.731	 H	1	SAM1	0.000	
45	 H3'	30.525	45.504	-6.683	 H	1	SAM1	0.000	
46	 H4'	32.785	43.094	-6.565	 H	1	SAM1	0.000	
47	 H61	26.511	37.279	-4.239	 H	1	SAM1	0.000	
48	 H62	26.413	36.177	-5.594	 H	1	SAM1	0.000	
49	H5'1	32.716	42.993	-3.509	 H	1	SAM1	0.000	
50	H5'2	33.903	42.121	-4.508	 H	1	SAM1	0.000	
@<TRIPOS>BOND
1 1 2 1
2 1 36 1
3 1 37 1
4 1 39 1
5 2 3 1
6 2 5 1
7 2 28 1
8 3 4 ar
9 3 17 ar
10 5 6 1
11 5 29 1
12 5 30 1
13 6 7 1
14 6 31 1
15 6 32 1
16 7 8 1
17 7 9 1
18 8 33 1
19 8 34 1
20 8 35 1
21 9 10 1
22 9 49 1
23 9 50 1
24 10 11 1
25 10 12 1
26 10 46 1
27 11 16 1
28 12 13 1
29 12 14 1
30 12 44 1
31 13 45 1
32 14 15 1
33 14 16 1
34 14 42 1
35 15 43 1
36 16 27 1
37 16 41 1
38 18 19 ar
39 18 23 ar
40 19 20 ar
41 19 38 1
42 20 21 ar
43 21 22 ar
44 21 27 ar
45 22 23 ar
46 22 25 ar
47 23 24 1
48 24 47 1
49 24 48 1
50 25 26 ar
51 26 27 ar
52 26 40 1
@<TRIPOS>SUBSTRUCTURE
1	SAM1	1	GROUP	1 A	SAM
