@<TRIPOS>MOLECULE
5EIF.A
51 53 1 0 0 
SMALL
USER_CHARGES


@<TRIPOS>ATOM
  1 N       38.1300    43.5480    -7.0310 N.4   1 SAM  -0.8530 
  2 H1      38.7830    43.9027    -6.3470 H     1 SAM   0.4500 
  3 H2      38.6364    43.2155    -7.8392 H     1 SAM   0.4500 
  4 H3      37.6010    42.7874    -6.6287 H     1 SAM   0.4500 
  5 CA      37.1960    44.6420    -7.4430 C.3   1 SAM   0.3170 
  6 HA      36.4899    44.2621    -8.1813 H     1 SAM   0.0800 
  7 C       37.9740    45.7820    -8.1150 C.2   1 SAM   0.9060 
  8 O       39.2180    45.6590    -8.1790 O.co2 1 SAM  -0.9000 
  9 CB      36.3790    45.1160    -6.2390 C.3   1 SAM  -0.1600 
 10 HB1     35.8413    46.0303    -6.4901 H     1 SAM   0.0800 
 11 HB2     37.0384    45.3034    -5.3916 H     1 SAM   0.0800 
 12 CG      35.3730    43.9880    -5.8890 C.3   1 SAM  -0.1525 
 13 HG1     35.9262    43.1127    -5.5484 H     1 SAM   0.0800 
 14 HG2     34.8023    43.7324    -6.7818 H     1 SAM   0.0800 
 15 SD      34.2390    44.4990    -4.5990 S.3   1 SAM   0.9775 
 16 CE      35.1870    44.3580    -3.1160 C.3   1 SAM  -0.2325 
 17 HE1     35.8612    45.2105    -3.0333 H     1 SAM   0.0800 
 18 HE2     35.7683    43.4363    -3.1426 H     1 SAM   0.0800 
 19 HE3     34.5167    44.3401    -2.2566 H     1 SAM   0.0800 
 20 C5'     33.2520    42.9940    -4.4580 C.3   1 SAM  -0.1525 
 21 H5'1    32.7157    42.9932    -3.5091 H     1 SAM   0.0800 
 22 H5'2    33.9028    42.1211    -4.5082 H     1 SAM   0.0800 
 23 C4'     32.2390    42.9600    -5.6320 C.3   1 SAM   0.2000 
 24 H4'     32.7854    43.0944    -6.5655 H     1 SAM   0.0800 
 25 O4'     31.5410    41.7010    -5.5170 O.3   1 SAM  -0.5600 
 26 C3'     31.1800    44.0680    -5.5520 C.3   1 SAM   0.2000 
 27 H3'     31.3212    44.7714    -4.7314 H     1 SAM   0.0800 
 28 O3'     31.2320    44.8570    -6.7350 O.3   1 SAM  -0.6800 
 29 H3'     30.5250    45.5043    -6.6835 H     1 SAM   0.4000 
 30 C2'     29.8550    43.3000    -5.3880 C.3   1 SAM   0.2000 
 31 H2'     29.4884    43.2904    -4.3616 H     1 SAM   0.0800 
 32 O2'     28.8170    43.8790    -6.1700 O.3   1 SAM  -0.6800 
 33 H2'     29.1170    43.8987    -7.0817 H     1 SAM   0.4000 
 34 C1'     30.2180    41.9320    -5.9610 C.3   1 SAM   0.5691 
 35 H1'     30.0886    41.9520    -7.0431 H     1 SAM   0.0800 
 36 OXT     37.3190    46.7510    -8.5680 O.co2 1 SAM  -0.9000 
 37 N1      27.9050    37.4800    -7.1550 N.2   1 SAM  -0.6610 
 38 C2      28.6500    38.3240    -7.8860 C.2   1 SAM   0.6010 
 39 H2      28.8278    38.0232    -8.9079 H     1 SAM   0.0600 
 40 N3      29.2040    39.4900    -7.5210 N.2   1 SAM  -0.6610 
 41 C4      28.9460    39.7570    -6.2270 C.2   1 SAM   0.5000 
 42 C5      28.2000    38.9810    -5.3500 C.2   1 SAM   0.4500 
 43 C6      27.6380    37.7890    -5.8650 C.2   1 SAM   0.6110 
 44 N6      26.7840    37.0180    -5.1760 N.2   1 SAM  -0.2000 
 45 H62     26.4134    36.1766    -5.5940 H     1 SAM   0.4000 
 46 H61     26.5114    37.2788    -4.2391 H     1 SAM   0.4000 
 47 N7      28.1600    39.5630    -4.0930 N.2   1 SAM  -0.6960 
 48 C8      28.8580    40.6640    -4.2360 C.3   1 SAM   0.4551 
 49 H81     29.6834    40.6409    -3.5245 H     1 SAM   0.0800 
 50 H82     28.2099    41.5116    -4.0132 H     1 SAM   0.0800 
 51 N9      29.3780    40.8380    -5.4940 N.pl3 1 SAM  -0.7882 
@<TRIPOS>BOND
  1   1   2  1   
  2   1   3  1   
  3   1   4  1   
  4   1   5  1   
  5   5   6  1   
  6   5   7  1   
  7   5   9  1   
  8   7   8  ar  
  9   7  36  ar  
 10   9  10  1   
 11   9  11  1   
 12   9  12  1   
 13  12  13  1   
 14  12  14  1   
 15  12  15  1   
 16  15  16  1   
 17  15  20  1   
 18  16  17  1   
 19  16  18  1   
 20  16  19  1   
 21  20  21  1   
 22  20  22  1   
 23  20  23  1   
 24  23  24  1   
 25  23  25  1   
 26  23  26  1   
 27  25  34  1   
 28  26  27  1   
 29  26  28  1   
 30  26  30  1   
 31  28  29  1   
 32  30  31  1   
 33  30  32  1   
 34  30  34  1   
 35  32  33  1   
 36  34  35  1   
 37  34  51  1   
 38  37  38  2   
 39  37  43  1   
 40  38  39  1   
 41  38  40  1   
 42  40  41  2   
 43  41  42  1   
 44  41  51  1   
 45  42  43  1   
 46  42  47  2   
 47  43  44  2   
 48  44  45  1   
 49  44  46  1   
 50  47  48  1   
 51  48  49  1   
 52  48  50  1   
 53  48  51  1   
@<TRIPOS>SUBSTRUCTURE
  1 SAM  25 GROUP 4 A **** 0

# MOE 2022.02 (io_trps.svl 2020.11)
