# created with PyMOL 2.5.0
@<TRIPOS>MOLECULE
5EIF
27 29 1                 
SMALL
USER_CHARGES
@<TRIPOS>ATOM
1	   N	38.130	43.548	-7.031	N.3	1	SAM301	0.000	
2	  CA	37.196	44.642	-7.443	C.3	1	SAM301	0.000	
3	   C	37.974	45.782	-8.115	C.2	1	SAM301	0.000	
4	   O	39.218	45.659	-8.179	O.co2	1	SAM301	0.000	
5	  CB	36.379	45.116	-6.239	C.3	1	SAM301	0.000	
6	  CG	35.373	43.988	-5.889	C.3	1	SAM301	0.000	
7	  SD	34.239	44.499	-4.599	S.3	1	SAM301	0.000	
8	  CE	35.187	44.358	-3.116	C.3	1	SAM301	0.000	
9	 C5'	33.252	42.994	-4.458	C.3	1	SAM301	0.000	
10	 C4'	32.239	42.960	-5.632	C.3	1	SAM301	0.000	
11	 O4'	31.541	41.701	-5.517	O.3	1	SAM301	0.000	
12	 C3'	31.180	44.068	-5.552	C.3	1	SAM301	0.000	
13	 O3'	31.232	44.857	-6.735	O.3	1	SAM301	0.000	
14	 C2'	29.855	43.300	-5.388	C.3	1	SAM301	0.000	
15	 O2'	28.817	43.879	-6.170	O.3	1	SAM301	0.000	
16	 C1'	30.218	41.932	-5.961	C.3	1	SAM301	0.000	
17	 OXT	37.319	46.751	-8.568	O.co2	1	SAM301	0.000	
18	  N1	27.905	37.480	-7.155	N.2	1	SAM301	0.000	
19	  C2	28.650	38.324	-7.886	C.2	1	SAM301	0.000	
20	  N3	29.204	39.490	-7.521	N.2	1	SAM301	0.000	
21	  C4	28.946	39.757	-6.227	C.2	1	SAM301	0.000	
22	  C5	28.200	38.981	-5.350	C.2	1	SAM301	0.000	
23	  C6	27.638	37.789	-5.865	C.2	1	SAM301	0.000	
24	  N6	26.784	37.018	-5.176	N.pl3	1	SAM301	0.000	
25	  N7	28.160	39.563	-4.093	N.2	1	SAM301	0.000	
26	  C8	28.858	40.664	-4.236	C.2	1	SAM301	0.000	
27	  N9	29.378	40.838	-5.494	N.2	1	SAM301	0.000	
@<TRIPOS>BOND
1 1 2 1
2 2 3 1
3 2 5 1
4 3 4 ar
5 3 17 ar
6 5 6 1
7 6 7 1
8 7 8 1
9 7 9 1
10 9 10 1
11 10 11 1
12 10 12 1
13 11 16 1
14 12 13 1
15 12 14 1
16 14 15 1
17 14 16 1
18 16 27 1
19 18 19 ar
20 18 23 ar
21 19 20 ar
22 20 21 ar
23 21 22 ar
24 21 27 ar
25 22 23 ar
26 22 25 ar
27 23 24 1
28 25 26 ar
29 26 27 ar
@<TRIPOS>SUBSTRUCTURE
1	SAM301	1	GROUP	1 A	SAM
