# created with PyMOL 2.5.0
@<TRIPOS>MOLECULE
5VSD
27 29 1                 
SMALL
USER_CHARGES
@<TRIPOS>ATOM
1	 CAB	4.116	-19.163	45.348	C.3	1	9HJ3006	0.000	
2	 CAC	2.847	-22.910	49.227	C.3	1	9HJ3006	0.000	
3	 CAD	-6.245	-23.358	51.506	C.3	1	9HJ3006	0.000	
4	 CAE	1.457	-19.284	46.279	C.2	1	9HJ3006	0.000	
5	 CAF	0.776	-21.171	48.203	C.2	1	9HJ3006	0.000	
6	 CAJ	-3.110	-15.364	46.474	C.3	1	9HJ3006	0.000	
7	 CAK	-2.754	-16.520	45.543	C.3	1	9HJ3006	0.000	
8	 CAL	-4.087	-21.881	48.850	C.3	1	9HJ3006	0.000	
9	 CAM	-3.478	-20.818	50.984	C.3	1	9HJ3006	0.000	
10	 CAN	-5.099	-22.796	49.516	C.3	1	9HJ3006	0.000	
11	 CAO	-4.442	-21.764	51.707	C.3	1	9HJ3006	0.000	
12	 CAW	2.416	-20.181	46.759	C.2	1	9HJ3006	0.000	
13	 CAX	2.078	-21.118	47.720	C.2	1	9HJ3006	0.000	
14	 NAR	-3.074	-17.682	46.355	N.pl3	1	9HJ3006	0.000	
15	 NAS	-1.744	-21.273	49.159	N.pl3	1	9HJ3006	0.000	
16	 OAT	3.710	-20.156	46.298	O.3	1	9HJ3006	0.000	
17	 OAU	3.052	-21.974	48.164	O.3	1	9HJ3006	0.000	
18	 CBB	-2.963	-21.697	49.860	C.3	1	9HJ3006	0.000	
19	 NBC	-5.530	-22.266	50.828	N.3	1	9HJ3006	0.000	
20	  C1	-4.459	-17.934	46.731	C.3	1	9HJ3006	0.000	
21	  N1	-2.409	-19.471	47.738	N.2	1	9HJ3006	0.000	
22	  C2	-2.074	-18.549	46.802	C.2	1	9HJ3006	0.000	
23	  N3	-0.809	-18.479	46.308	N.2	1	9HJ3006	0.000	
24	  C4	0.148	-19.333	46.759	C.2	1	9HJ3006	0.000	
25	  C5	-0.186	-20.278	47.723	C.2	1	9HJ3006	0.000	
26	  C6	-1.492	-20.336	48.207	C.2	1	9HJ3006	0.000	
27	  C7	-3.285	-14.058	45.729	C.3	1	9HJ3006	0.000	
@<TRIPOS>BOND
1 1 16 1
2 2 17 1
3 3 19 1
4 4 12 ar
5 4 24 ar
6 5 13 ar
7 5 25 ar
8 6 7 1
9 6 27 1
10 7 14 1
11 8 10 1
12 8 18 1
13 9 11 1
14 9 18 1
15 10 19 1
16 11 19 1
17 12 13 ar
18 12 16 1
19 13 17 1
20 14 20 1
21 14 22 1
22 15 18 1
23 15 26 1
24 21 22 ar
25 21 26 ar
26 22 23 ar
27 23 24 ar
28 24 25 ar
29 25 26 ar
@<TRIPOS>SUBSTRUCTURE
1	9HJ3006	1	GROUP	1 B	9HJ
