# created with PyMOL 2.5.0
@<TRIPOS>MOLECULE
5VSD
27 29 1                 
SMALL
USER_CHARGES
@<TRIPOS>ATOM
1	 CAB	-18.775	-17.999	1.184	C.3	1	9HJ3006	0.000	
2	 CAC	-19.709	-13.277	-1.517	C.3	1	9HJ3006	0.000	
3	 CAD	-24.371	-6.739	3.197	C.3	1	9HJ3006	0.000	
4	 CAE	-20.275	-15.980	2.456	C.2	1	9HJ3006	0.000	
5	 CAF	-20.662	-13.530	1.160	C.2	1	9HJ3006	0.000	
6	 CAJ	-22.489	-15.722	8.062	C.3	1	9HJ3006	0.000	
7	 CAK	-22.959	-15.776	6.612	C.3	1	9HJ3006	0.000	
8	 CAL	-22.297	-9.760	3.887	C.3	1	9HJ3006	0.000	
9	 CAM	-24.262	-10.441	2.590	C.3	1	9HJ3006	0.000	
10	 CAN	-22.706	-8.297	3.812	C.3	1	9HJ3006	0.000	
11	 CAO	-24.696	-8.983	2.466	C.3	1	9HJ3006	0.000	
12	 CAW	-19.709	-15.749	1.199	C.2	1	9HJ3006	0.000	
13	 CAX	-19.915	-14.541	0.552	C.2	1	9HJ3006	0.000	
14	 NAR	-22.875	-14.402	6.128	N.pl3	1	9HJ3006	0.000	
15	 NAS	-22.087	-11.627	2.311	N.pl3	1	9HJ3006	0.000	
16	 OAT	-18.957	-16.718	0.570	O.3	1	9HJ3006	0.000	
17	 OAU	-19.351	-14.363	-0.678	O.3	1	9HJ3006	0.000	
18	 CBB	-22.750	-10.349	2.565	C.3	1	9HJ3006	0.000	
19	 NBC	-24.153	-8.143	3.557	N.3	1	9HJ3006	0.000	
20	  C1	-23.423	-13.289	6.892	C.3	1	9HJ3006	0.000	
21	  N1	-22.505	-12.978	4.262	N.2	1	9HJ3006	0.000	
22	  C2	-22.301	-14.168	4.879	C.2	1	9HJ3006	0.000	
23	  N3	-21.570	-15.157	4.298	N.2	1	9HJ3006	0.000	
24	  C4	-21.018	-14.974	3.073	C.2	1	9HJ3006	0.000	
25	  C5	-21.215	-13.762	2.424	C.2	1	9HJ3006	0.000	
26	  C6	-21.963	-12.765	3.038	C.2	1	9HJ3006	0.000	
27	  C7	-22.402	-17.089	8.726	C.3	1	9HJ3006	0.000	
@<TRIPOS>BOND
1 1 16 1
2 2 17 1
3 3 19 1
4 4 12 ar
5 4 24 ar
6 5 13 ar
7 5 25 ar
8 6 7 1
9 6 27 1
10 7 14 1
11 8 10 1
12 8 18 1
13 9 11 1
14 9 18 1
15 10 19 1
16 11 19 1
17 12 13 ar
18 12 16 1
19 13 17 1
20 14 20 1
21 14 22 1
22 15 18 1
23 15 26 1
24 21 22 ar
25 21 26 ar
26 22 23 ar
27 23 24 ar
28 24 25 ar
29 25 26 ar
@<TRIPOS>SUBSTRUCTURE
1	9HJ3006	1	GROUP	1 A	9HJ
