@<TRIPOS>MOLECULE
5VSD.B
60 62 1 0 0 
SMALL
USER_CHARGES


@<TRIPOS>ATOM
  1 CAB      4.1160   -19.1630    45.3480 C.3   1 Q9HJ   0.0400 
  2 HAB1     5.1690   -19.3029    45.1038 H     1 Q9HJ   0.0800 
  3 HAB2     3.9707   -18.1707    45.7751 H     1 Q9HJ   0.0800 
  4 HAB3     3.5170   -19.2601    44.4425 H     1 Q9HJ   0.0800 
  5 CAC      2.8470   -22.9100    49.2270 C.3   1 Q9HJ   0.0400 
  6 HAC1     3.7638   -23.4750    49.3955 H     1 Q9HJ   0.0800 
  7 HAC2     2.0425   -23.5946    48.9582 H     1 Q9HJ   0.0800 
  8 HAC3     2.5785   -22.3733    50.1369 H     1 Q9HJ   0.0800 
  9 CAD     -6.2450   -23.3580    51.5060 C.3   1 Q9HJ   0.2630 
 10 HAD1    -7.0428   -23.7256    50.8607 H     1 Q9HJ   0.0800 
 11 HAD2    -6.6727   -22.9887    52.4381 H     1 Q9HJ   0.0800 
 12 HAD3    -5.5494   -24.1690    51.7217 H     1 Q9HJ   0.0800 
 13 CAE      1.4570   -19.2840    46.2790 C.ar  1 Q9HJ  -0.1500 
 14 HAE      1.7304   -18.5510    45.5344 H     1 Q9HJ   0.1500 
 15 CAF      0.7760   -21.1710    48.2030 C.ar  1 Q9HJ  -0.1500 
 16 HAF      0.5072   -21.9031    48.9501 H     1 Q9HJ   0.1500 
 17 CAJ     -3.1100   -15.3640    46.4740 C.3   1 Q9HJ  -0.1600 
 18 HAJ1    -2.3114   -15.2453    47.2063 H     1 Q9HJ   0.0800 
 19 HAJ2    -4.0415   -15.6019    46.9876 H     1 Q9HJ   0.0800 
 20 CAK     -2.7540   -16.5200    45.5430 C.3   1 Q9HJ   0.2091 
 21 HAK1    -1.6967   -16.5024    45.2784 H     1 Q9HJ   0.0800 
 22 HAK2    -3.3562   -16.4952    44.6348 H     1 Q9HJ   0.0800 
 23 CAL     -4.0870   -21.8810    48.8500 C.3   1 Q9HJ  -0.1600 
 24 HAL1    -4.5436   -20.9204    48.6116 H     1 Q9HJ   0.0800 
 25 HAL2    -3.7054   -22.3384    47.9372 H     1 Q9HJ   0.0800 
 26 CAM     -3.4780   -20.8180    50.9840 C.3   1 Q9HJ  -0.1600 
 27 HAM1    -2.6686   -20.4987    51.6405 H     1 Q9HJ   0.0800 
 28 HAM2    -3.9981   -19.9421    50.5961 H     1 Q9HJ   0.0800 
 29 CAN     -5.0990   -22.7960    49.5160 C.3   1 Q9HJ   0.3430 
 30 HAN1    -4.6470   -23.7771    49.6618 H     1 Q9HJ   0.0800 
 31 HAN2    -5.9708   -22.8902    48.8686 H     1 Q9HJ   0.0800 
 32 CAO     -4.4420   -21.7640    51.7070 C.3   1 Q9HJ   0.3430 
 33 HAO1    -4.8905   -21.2296    52.5445 H     1 Q9HJ   0.0800 
 34 HAO2    -3.8762   -22.6171    52.0815 H     1 Q9HJ   0.0800 
 35 CAW      2.4160   -20.1810    46.7590 C.ar  1 Q9HJ   0.0825 
 36 CAX      2.0780   -21.1180    47.7200 C.ar  1 Q9HJ   0.0825 
 37 NAR     -3.0740   -17.6820    46.3550 N.pl3 1 Q9HJ  -0.8382 
 38 NAS     -1.7440   -21.2730    49.1590 N.pl3 1 Q9HJ  -0.8691 
 39 HAS     -0.9210   -21.7845    49.4438 H     1 Q9HJ   0.4000 
 40 OAT      3.7100   -20.1560    46.2980 O.3   1 Q9HJ  -0.3625 
 41 OAU      3.0520   -21.9740    48.1640 O.3   1 Q9HJ  -0.3625 
 42 CBB     -2.9630   -21.6970    49.8600 C.3   1 Q9HJ   0.2891 
 43 HBB     -2.6570   -22.6194    50.3535 H     1 Q9HJ   0.0800 
 44 NBC     -5.5300   -22.2660    50.8280 N.4   1 Q9HJ  -0.9590 
 45 HBC     -6.1027   -21.4530    50.6516 H     1 Q9HJ   0.4500 
 46 C1      -4.4590   -17.9340    46.7310 C.3   1 Q9HJ   0.1291 
 47 H11     -5.0987   -17.1649    46.2981 H     1 Q9HJ   0.0800 
 48 H12     -4.5502   -17.9135    47.8170 H     1 Q9HJ   0.0800 
 49 H13     -4.7642   -18.9121    46.3592 H     1 Q9HJ   0.0800 
 50 N1      -2.4090   -19.4710    47.7380 N.ar  1 Q9HJ  -0.6200 
 51 C2      -2.0740   -18.5490    46.8020 C.ar  1 Q9HJ   0.7710 
 52 N3      -0.8090   -18.4790    46.3080 N.ar  1 Q9HJ  -0.1790 
 53 H3      -0.5799   -17.7913    45.6047 H     1 Q9HJ   0.4570 
 54 C4       0.1480   -19.3330    46.7590 C.ar  1 Q9HJ   0.3610 
 55 C5      -0.1860   -20.2780    47.7230 C.ar  1 Q9HJ   0.0000 
 56 C6      -1.4920   -20.3360    48.2070 C.ar  1 Q9HJ   0.4100 
 57 C7      -3.2850   -14.0580    45.7290 C.3   1 Q9HJ  -0.2400 
 58 H71     -3.5373   -13.2675    46.4358 H     1 Q9HJ   0.0800 
 59 H72     -4.0869   -14.1613    44.9980 H     1 Q9HJ   0.0800 
 60 H73     -2.3568   -13.8047    45.2167 H     1 Q9HJ   0.0800 
@<TRIPOS>BOND
  1   1   2  1   
  2   1   3  1   
  3   1   4  1   
  4   1  40  1   
  5   5   6  1   
  6   5   7  1   
  7   5   8  1   
  8   5  41  1   
  9   9  10  1   
 10   9  11  1   
 11   9  12  1   
 12   9  44  1   
 13  13  14  1   
 14  13  35  ar  
 15  13  54  ar  
 16  15  16  1   
 17  15  36  ar  
 18  15  55  ar  
 19  17  18  1   
 20  17  19  1   
 21  17  20  1   
 22  17  57  1   
 23  20  21  1   
 24  20  22  1   
 25  20  37  1   
 26  23  24  1   
 27  23  25  1   
 28  23  29  1   
 29  23  42  1   
 30  26  27  1   
 31  26  28  1   
 32  26  32  1   
 33  26  42  1   
 34  29  30  1   
 35  29  31  1   
 36  29  44  1   
 37  32  33  1   
 38  32  34  1   
 39  32  44  1   
 40  35  36  ar  
 41  35  40  1   
 42  36  41  1   
 43  37  46  1   
 44  37  51  1   
 45  38  39  1   
 46  38  42  1   
 47  38  56  1   
 48  42  43  1   
 49  44  45  1   
 50  46  47  1   
 51  46  48  1   
 52  46  49  1   
 53  50  51  ar  
 54  50  56  ar  
 55  51  52  ar  
 56  52  53  1   
 57  52  54  ar  
 58  54  55  ar  
 59  55  56  ar  
 60  57  58  1   
 61  57  59  1   
 62  57  60  1   
@<TRIPOS>SUBSTRUCTURE
  1 Q9HJ  56 GROUP 4 B **** 0

# MOE 2022.02 (io_trps.svl 2020.11)
