@<TRIPOS>MOLECULE
5VSD.A
60 62 1 0 0 
SMALL
USER_CHARGES


@<TRIPOS>ATOM
  1 CAB    -18.7750   -17.9990     1.1840 C.3   1 Q9HJ   0.0400 
  2 HAB1   -18.1563   -18.6253     0.5413 H     1 Q9HJ   0.0800 
  3 HAB2   -19.7455   -18.4738     1.3287 H     1 Q9HJ   0.0800 
  4 HAB3   -18.2847   -17.8729     2.1493 H     1 Q9HJ   0.0800 
  5 CAC    -19.7090   -13.2770    -1.5170 C.3   1 Q9HJ   0.0400 
  6 HAC1   -19.1388   -13.3310    -2.4444 H     1 Q9HJ   0.0800 
  7 HAC2   -19.4890   -12.3378    -1.0094 H     1 Q9HJ   0.0800 
  8 HAC3   -20.7743   -13.3275    -1.7420 H     1 Q9HJ   0.0800 
  9 CAD    -24.3710    -6.7390     3.1970 C.3   1 Q9HJ   0.2630 
 10 HAD1   -23.9793    -6.0967     3.9857 H     1 Q9HJ   0.0800 
 11 HAD2   -25.4388    -6.5564     3.0765 H     1 Q9HJ   0.0800 
 12 HAD3   -23.8570    -6.5199     2.2611 H     1 Q9HJ   0.0800 
 13 CAE    -20.2750   -15.9800     2.4560 C.ar  1 Q9HJ  -0.1500 
 14 HAE    -20.1377   -16.9323     2.9467 H     1 Q9HJ   0.1500 
 15 CAF    -20.6620   -13.5300     1.1600 C.ar  1 Q9HJ  -0.1500 
 16 HAF    -20.8106   -12.5833     0.6620 H     1 Q9HJ   0.1500 
 17 CAJ    -22.4890   -15.7220     8.0620 C.3   1 Q9HJ  -0.1600 
 18 HAJ1   -23.1890   -15.1077     8.6284 H     1 Q9HJ   0.0800 
 19 HAJ2   -21.5005   -15.2633     8.0869 H     1 Q9HJ   0.0800 
 20 CAK    -22.9590   -15.7760     6.6120 C.3   1 Q9HJ   0.2091 
 21 HAK1   -23.9856   -16.1381     6.5568 H     1 Q9HJ   0.0800 
 22 HAK2   -22.3118   -16.4277     6.0250 H     1 Q9HJ   0.0800 
 23 CAL    -22.2970    -9.7600     3.8870 C.3   1 Q9HJ  -0.1600 
 24 HAL1   -22.7937   -10.2567     4.7205 H     1 Q9HJ   0.0800 
 25 HAL2   -21.2169    -9.8528     4.0002 H     1 Q9HJ   0.0800 
 26 CAM    -24.2620   -10.4410     2.5900 C.3   1 Q9HJ  -0.1600 
 27 HAM1   -24.6325   -11.0327     1.7529 H     1 Q9HJ   0.0800 
 28 HAM2   -24.6127   -10.8760     3.5259 H     1 Q9HJ   0.0800 
 29 CAN    -22.7060    -8.2970     3.8120 C.3   1 Q9HJ   0.3430 
 30 HAN1   -22.1527    -7.8171     3.0047 H     1 Q9HJ   0.0800 
 31 HAN2   -22.4612    -7.8135     4.7577 H     1 Q9HJ   0.0800 
 32 CAO    -24.6960    -8.9830     2.4660 C.3   1 Q9HJ   0.3430 
 33 HAO1   -25.7846    -8.9371     2.4963 H     1 Q9HJ   0.0800 
 34 HAO2   -24.3422    -8.5914     1.5123 H     1 Q9HJ   0.0800 
 35 CAW    -19.7090   -15.7490     1.1990 C.ar  1 Q9HJ   0.0825 
 36 CAX    -19.9150   -14.5410     0.5520 C.ar  1 Q9HJ   0.0825 
 37 NAR    -22.8750   -14.4020     6.1280 N.pl3 1 Q9HJ  -0.8382 
 38 NAS    -22.0870   -11.6270     2.3110 N.pl3 1 Q9HJ  -0.8691 
 39 HAS    -21.6285   -11.6713     1.4121 H     1 Q9HJ   0.4000 
 40 OAT    -18.9570   -16.7180     0.5700 O.3   1 Q9HJ  -0.3625 
 41 OAU    -19.3510   -14.3630    -0.6780 O.3   1 Q9HJ  -0.3625 
 42 CBB    -22.7500   -10.3490     2.5650 C.3   1 Q9HJ   0.2891 
 43 HBB    -22.4627    -9.7102     1.7298 H     1 Q9HJ   0.0800 
 44 NBC    -24.1530    -8.1430     3.5570 N.4   1 Q9HJ  -0.9590 
 45 HBC    -24.6328    -8.4390     4.3950 H     1 Q9HJ   0.4500 
 46 C1     -23.4230   -13.2890     6.8920 C.3   1 Q9HJ   0.1291 
 47 H11    -23.8260   -13.6590     7.8348 H     1 Q9HJ   0.0800 
 48 H12    -24.2182   -12.8118     6.3193 H     1 Q9HJ   0.0800 
 49 H13    -22.6348   -12.5636     7.0935 H     1 Q9HJ   0.0800 
 50 N1     -22.5050   -12.9780     4.2620 N.ar  1 Q9HJ  -0.6200 
 51 C2     -22.3010   -14.1680     4.8790 C.ar  1 Q9HJ   0.7710 
 52 N3     -21.5700   -15.1570     4.2980 N.ar  1 Q9HJ  -0.1790 
 53 H3     -21.4375   -16.0334     4.7822 H     1 Q9HJ   0.4570 
 54 C4     -21.0180   -14.9740     3.0730 C.ar  1 Q9HJ   0.3610 
 55 C5     -21.2150   -13.7620     2.4240 C.ar  1 Q9HJ   0.0000 
 56 C6     -21.9630   -12.7650     3.0380 C.ar  1 Q9HJ   0.4100 
 57 C7     -22.4020   -17.0890     8.7260 C.3   1 Q9HJ  -0.2400 
 58 H71    -22.0613   -16.9722     9.7548 H     1 Q9HJ   0.0800 
 59 H72    -21.6970   -17.7146     8.1786 H     1 Q9HJ   0.0800 
 60 H73    -23.3854   -17.5591     8.7201 H     1 Q9HJ   0.0800 
@<TRIPOS>BOND
  1   1   2  1   
  2   1   3  1   
  3   1   4  1   
  4   1  40  1   
  5   5   6  1   
  6   5   7  1   
  7   5   8  1   
  8   5  41  1   
  9   9  10  1   
 10   9  11  1   
 11   9  12  1   
 12   9  44  1   
 13  13  14  1   
 14  13  35  ar  
 15  13  54  ar  
 16  15  16  1   
 17  15  36  ar  
 18  15  55  ar  
 19  17  18  1   
 20  17  19  1   
 21  17  20  1   
 22  17  57  1   
 23  20  21  1   
 24  20  22  1   
 25  20  37  1   
 26  23  24  1   
 27  23  25  1   
 28  23  29  1   
 29  23  42  1   
 30  26  27  1   
 31  26  28  1   
 32  26  32  1   
 33  26  42  1   
 34  29  30  1   
 35  29  31  1   
 36  29  44  1   
 37  32  33  1   
 38  32  34  1   
 39  32  44  1   
 40  35  36  ar  
 41  35  40  1   
 42  36  41  1   
 43  37  46  1   
 44  37  51  1   
 45  38  39  1   
 46  38  42  1   
 47  38  56  1   
 48  42  43  1   
 49  44  45  1   
 50  46  47  1   
 51  46  48  1   
 52  46  49  1   
 53  50  51  ar  
 54  50  56  ar  
 55  51  52  ar  
 56  52  53  1   
 57  52  54  ar  
 58  54  55  ar  
 59  55  56  ar  
 60  57  58  1   
 61  57  59  1   
 62  57  60  1   
@<TRIPOS>SUBSTRUCTURE
  1 Q9HJ  56 GROUP 4 A **** 0

# MOE 2022.02 (io_trps.svl 2020.11)
