# created with PyMOL 2.4.0
@<TRIPOS>MOLECULE
temp
50 52 1                 
SMALL
USER_CHARGES
@<TRIPOS>ATOM
1	   N	-7.875	-13.059	-7.105	N.4	1	SAM1	0.000	
2	  CA	-8.134	-12.557	-5.740	C.3	1	SAM1	0.000	
3	   C	-7.191	-11.414	-5.447	C.2	1	SAM1	0.000	
4	   O	-6.472	-10.967	-6.385	O.co2	1	SAM1	0.000	
5	  CB	-7.971	-13.677	-4.702	C.3	1	SAM1	0.000	
6	  CG	-9.260	-14.475	-4.498	C.3	1	SAM1	0.000	
7	  SD	-10.433	-13.688	-3.603	S.3	1	SAM1	0.000	
8	  CE	-10.699	-14.631	-2.267	C.3	1	SAM1	0.000	
9	 C5'	-11.868	-13.786	-4.443	C.3	1	SAM1	0.000	
10	 C4'	-11.979	-12.843	-5.653	C.3	1	SAM1	0.000	
11	 O4'	-11.125	-13.199	-6.755	O.3	1	SAM1	0.000	
12	 C3'	-13.380	-12.879	-6.244	C.3	1	SAM1	0.000	
13	 O3'	-14.287	-12.015	-5.554	O.3	1	SAM1	0.000	
14	 C2'	-13.161	-12.458	-7.676	C.3	1	SAM1	0.000	
15	 O2'	-12.997	-11.033	-7.733	O.3	1	SAM1	0.000	
16	 C1'	-11.859	-13.168	-7.988	C.3	1	SAM1	0.000	
17	 OXT	-7.172	-10.952	-4.274	O.co2	1	SAM1	0.000	
18	  N1	-14.073	-16.138	-11.588	N.2	1	SAM1	0.000	
19	  C2	-13.980	-14.798	-11.531	C.2	1	SAM1	0.000	
20	  N3	-13.364	-14.179	-10.511	N.2	1	SAM1	0.000	
21	  C4	-12.817	-14.919	-9.505	C.2	1	SAM1	0.000	
22	  C5	-12.893	-16.307	-9.535	C.2	1	SAM1	0.000	
23	  C6	-13.544	-16.915	-10.610	C.2	1	SAM1	0.000	
24	  N6	-13.649	-18.263	-10.710	N.pl3	1	SAM1	0.000	
25	  N7	-12.271	-16.772	-8.418	N.2	1	SAM1	0.000	
26	  C8	-11.830	-15.692	-7.720	C.2	1	SAM1	0.000	
27	  N9	-12.155	-14.569	-8.394	N.2	1	SAM1	0.000	
28	  HA	-9.163	-12.202	-5.679	 H	1	SAM1	0.000	
29	 HB1	-7.680	-13.233	-3.750	 H	1	SAM1	0.000	
30	 HB2	-7.188	-14.356	-5.040	 H	1	SAM1	0.000	
31	 HG1	-9.007	-15.403	-3.986	 H	1	SAM1	0.000	
32	 HG2	-9.677	-14.703	-5.479	 H	1	SAM1	0.000	
33	 HE1	-9.807	-14.634	-1.641	 H	1	SAM1	0.000	
34	 HE2	-10.926	-15.650	-2.581	 H	1	SAM1	0.000	
35	 HE3	-11.539	-14.229	-1.700	 H	1	SAM1	0.000	
36	  H1	-6.923	-13.389	-7.167	 H	1	SAM1	0.000	
37	  H2	-8.017	-12.313	-7.771	 H	1	SAM1	0.000	
38	  H2	-14.411	-14.205	-12.324	 H	1	SAM1	0.000	
39	  H3	-8.509	-13.818	-7.310	 H	1	SAM1	0.000	
40	  H8	-11.304	-15.727	-6.777	 H	1	SAM1	0.000	
41	 H1'	-11.308	-12.670	-8.786	 H	1	SAM1	0.000	
42	 H2'	-13.971	-12.698	-8.365	 H	1	SAM1	0.000	
43	 H2'	-13.828	-10.634	-7.463	 H	1	SAM1	0.000	
44	 H3'	-13.847	-13.860	-6.159	 H	1	SAM1	0.000	
45	 H3'	-15.135	-12.068	-6.000	 H	1	SAM1	0.000	
46	 H4'	-11.698	-11.871	-5.249	 H	1	SAM1	0.000	
47	 H61	-13.250	-18.855	-9.995	 H	1	SAM1	0.000	
48	 H62	-14.126	-18.675	-11.499	 H	1	SAM1	0.000	
49	H5'1	-12.679	-13.550	-3.755	 H	1	SAM1	0.000	
50	H5'2	-11.981	-14.809	-4.800	 H	1	SAM1	0.000	
@<TRIPOS>BOND
1 1 2 1
2 1 36 1
3 1 37 1
4 1 39 1
5 2 3 1
6 2 5 1
7 2 28 1
8 3 4 ar
9 3 17 ar
10 5 6 1
11 5 29 1
12 5 30 1
13 6 7 1
14 6 31 1
15 6 32 1
16 7 8 1
17 7 9 1
18 8 33 1
19 8 34 1
20 8 35 1
21 9 10 1
22 9 49 1
23 9 50 1
24 10 11 1
25 10 12 1
26 10 46 1
27 11 16 1
28 12 13 1
29 12 14 1
30 12 44 1
31 13 45 1
32 14 15 1
33 14 16 1
34 14 42 1
35 15 43 1
36 16 27 1
37 16 41 1
38 18 19 ar
39 18 23 ar
40 19 20 ar
41 19 38 1
42 20 21 ar
43 21 22 ar
44 21 27 ar
45 22 23 ar
46 22 25 ar
47 23 24 1
48 24 47 1
49 24 48 1
50 25 26 ar
51 26 27 ar
52 26 40 1
@<TRIPOS>SUBSTRUCTURE
1	SAM1	1	GROUP	1 A	SAM
