# created with PyMOL 2.4.0
@<TRIPOS>MOLECULE
temp
50 52 1                 
SMALL
USER_CHARGES
@<TRIPOS>ATOM
1	   N	10.479	-32.280	44.542	N.4	1	SAM1	0.000	
2	  CA	9.092	-32.101	44.062	C.3	1	SAM1	0.000	
3	   C	8.514	-33.423	43.670	C.2	1	SAM1	0.000	
4	   O	9.141	-34.462	43.992	O.co2	1	SAM1	0.000	
5	  CB	9.053	-31.130	42.878	C.3	1	SAM1	0.000	
6	  CG	9.194	-29.714	43.416	C.3	1	SAM1	0.000	
7	  SD	7.746	-29.134	44.012	S.3	1	SAM1	0.000	
8	  CE	7.190	-27.939	42.991	C.3	1	SAM1	0.000	
9	 C5'	8.007	-28.389	45.492	C.3	1	SAM1	0.000	
10	 C4'	8.099	-29.394	46.649	C.3	1	SAM1	0.000	
11	 O4'	9.316	-30.161	46.617	O.3	1	SAM1	0.000	
12	 C3'	8.076	-28.734	48.024	C.3	1	SAM1	0.000	
13	 O3'	6.745	-28.657	48.538	O.3	1	SAM1	0.000	
14	 C2'	8.927	-29.667	48.867	C.3	1	SAM1	0.000	
15	 O2'	8.162	-30.824	49.185	O.3	1	SAM1	0.000	
16	 C1'	9.990	-30.111	47.883	C.3	1	SAM1	0.000	
17	 OXT	7.427	-33.418	43.045	O.co2	1	SAM1	0.000	
18	  N1	13.788	-27.867	50.563	N.2	1	SAM1	0.000	
19	  C2	12.956	-28.849	50.934	C.2	1	SAM1	0.000	
20	  N3	12.015	-29.324	50.103	N.2	1	SAM1	0.000	
21	  C4	11.887	-28.807	48.857	C.2	1	SAM1	0.000	
22	  C5	12.728	-27.789	48.447	C.2	1	SAM1	0.000	
23	  C6	13.701	-27.322	49.327	C.2	1	SAM1	0.000	
24	  N6	14.558	-26.331	48.972	N.pl3	1	SAM1	0.000	
25	  N7	12.382	-27.472	47.167	N.2	1	SAM1	0.000	
26	  C8	11.353	-28.272	46.813	C.2	1	SAM1	0.000	
27	  N9	11.057	-29.085	47.847	N.2	1	SAM1	0.000	
28	  HA	8.494	-31.679	44.870	 H	1	SAM1	0.000	
29	 HB1	8.105	-31.231	42.350	 H	1	SAM1	0.000	
30	 HB2	9.874	-31.348	42.195	 H	1	SAM1	0.000	
31	 HG1	9.531	-29.062	42.610	 H	1	SAM1	0.000	
32	 HG2	9.932	-29.712	44.218	 H	1	SAM1	0.000	
33	 HE1	7.000	-28.363	42.005	 H	1	SAM1	0.000	
34	 HE2	7.940	-27.152	42.910	 H	1	SAM1	0.000	
35	 HE3	6.266	-27.521	43.390	 H	1	SAM1	0.000	
36	  H1	11.044	-32.671	43.801	 H	1	SAM1	0.000	
37	  H2	10.483	-32.906	45.335	 H	1	SAM1	0.000	
38	  H2	13.044	-29.268	51.925	 H	1	SAM1	0.000	
39	  H3	10.858	-31.385	44.818	 H	1	SAM1	0.000	
40	  H8	10.849	-28.262	45.858	 H	1	SAM1	0.000	
41	 H1'	10.443	-31.068	48.142	 H	1	SAM1	0.000	
42	 H2'	9.297	-29.208	49.784	 H	1	SAM1	0.000	
43	 H2'	7.428	-30.544	49.737	 H	1	SAM1	0.000	
44	 H3'	8.444	-27.708	48.010	 H	1	SAM1	0.000	
45	 H3'	6.795	-28.278	49.418	 H	1	SAM1	0.000	
46	 H4'	7.222	-30.025	46.506	 H	1	SAM1	0.000	
47	 H61	14.498	-25.916	48.053	 H	1	SAM1	0.000	
48	 H62	15.256	-26.008	49.627	 H	1	SAM1	0.000	
49	H5'1	7.182	-27.704	45.689	 H	1	SAM1	0.000	
50	H5'2	8.940	-27.828	45.441	 H	1	SAM1	0.000	
@<TRIPOS>BOND
1 1 2 1
2 1 36 1
3 1 37 1
4 1 39 1
5 2 3 1
6 2 5 1
7 2 28 1
8 3 4 ar
9 3 17 ar
10 5 6 1
11 5 29 1
12 5 30 1
13 6 7 1
14 6 31 1
15 6 32 1
16 7 8 1
17 7 9 1
18 8 33 1
19 8 34 1
20 8 35 1
21 9 10 1
22 9 49 1
23 9 50 1
24 10 11 1
25 10 12 1
26 10 46 1
27 11 16 1
28 12 13 1
29 12 14 1
30 12 44 1
31 13 45 1
32 14 15 1
33 14 16 1
34 14 42 1
35 15 43 1
36 16 27 1
37 16 41 1
38 18 19 ar
39 18 23 ar
40 19 20 ar
41 19 38 1
42 20 21 ar
43 21 22 ar
44 21 27 ar
45 22 23 ar
46 22 25 ar
47 23 24 1
48 24 47 1
49 24 48 1
50 25 26 ar
51 26 27 ar
52 26 40 1
@<TRIPOS>SUBSTRUCTURE
1	SAM1	1	GROUP	1 B	SAM
