# created with PyMOL 2.5.0
@<TRIPOS>MOLECULE
5VSD
27 29 1                 
SMALL
USER_CHARGES
@<TRIPOS>ATOM
1	   N	-7.875	-13.059	-7.105	N.3	1	SAM3001	0.000	
2	  CA	-8.134	-12.557	-5.740	C.3	1	SAM3001	0.000	
3	   C	-7.191	-11.414	-5.447	C.2	1	SAM3001	0.000	
4	   O	-6.472	-10.967	-6.385	O.co2	1	SAM3001	0.000	
5	  CB	-7.971	-13.677	-4.702	C.3	1	SAM3001	0.000	
6	  CG	-9.260	-14.475	-4.498	C.3	1	SAM3001	0.000	
7	  SD	-10.433	-13.688	-3.603	S.3	1	SAM3001	0.000	
8	  CE	-10.699	-14.631	-2.267	C.3	1	SAM3001	0.000	
9	 C5'	-11.868	-13.786	-4.443	C.3	1	SAM3001	0.000	
10	 C4'	-11.979	-12.843	-5.653	C.3	1	SAM3001	0.000	
11	 O4'	-11.125	-13.199	-6.755	O.3	1	SAM3001	0.000	
12	 C3'	-13.380	-12.879	-6.244	C.3	1	SAM3001	0.000	
13	 O3'	-14.287	-12.015	-5.554	O.3	1	SAM3001	0.000	
14	 C2'	-13.161	-12.458	-7.676	C.3	1	SAM3001	0.000	
15	 O2'	-12.997	-11.033	-7.733	O.3	1	SAM3001	0.000	
16	 C1'	-11.859	-13.168	-7.988	C.3	1	SAM3001	0.000	
17	 OXT	-7.172	-10.952	-4.274	O.co2	1	SAM3001	0.000	
18	  N1	-14.073	-16.138	-11.588	N.2	1	SAM3001	0.000	
19	  C2	-13.980	-14.798	-11.531	C.2	1	SAM3001	0.000	
20	  N3	-13.364	-14.179	-10.511	N.2	1	SAM3001	0.000	
21	  C4	-12.817	-14.919	-9.505	C.2	1	SAM3001	0.000	
22	  C5	-12.893	-16.307	-9.535	C.2	1	SAM3001	0.000	
23	  C6	-13.544	-16.915	-10.610	C.2	1	SAM3001	0.000	
24	  N6	-13.649	-18.263	-10.710	N.pl3	1	SAM3001	0.000	
25	  N7	-12.271	-16.772	-8.418	N.2	1	SAM3001	0.000	
26	  C8	-11.830	-15.692	-7.720	C.2	1	SAM3001	0.000	
27	  N9	-12.155	-14.569	-8.394	N.2	1	SAM3001	0.000	
@<TRIPOS>BOND
1 1 2 1
2 2 3 1
3 2 5 1
4 3 4 ar
5 3 17 ar
6 5 6 1
7 6 7 1
8 7 8 1
9 7 9 1
10 9 10 1
11 10 11 1
12 10 12 1
13 11 16 1
14 12 13 1
15 12 14 1
16 14 15 1
17 14 16 1
18 16 27 1
19 18 19 ar
20 18 23 ar
21 19 20 ar
22 20 21 ar
23 21 22 ar
24 21 27 ar
25 22 23 ar
26 22 25 ar
27 23 24 1
28 25 26 ar
29 26 27 ar
@<TRIPOS>SUBSTRUCTURE
1	SAM3001	1	GROUP	1 A	SAM
