@<TRIPOS>MOLECULE
5VSD.A
51 53 1 0 0 
SMALL
USER_CHARGES


@<TRIPOS>ATOM
  1 N       -7.8750   -13.0590    -7.1050 N.4   1 SAM  -0.8530 
  2 H1      -6.9225   -13.3891    -7.1672 H     1 SAM   0.4500 
  3 H2      -8.0168   -12.3128    -7.7707 H     1 SAM   0.4500 
  4 H3      -8.5086   -13.8183    -7.3103 H     1 SAM   0.4500 
  5 CA      -8.1340   -12.5570    -5.7400 C.3   1 SAM   0.3170 
  6 HA      -9.1628   -12.2022    -5.6785 H     1 SAM   0.0800 
  7 C       -7.1910   -11.4140    -5.4470 C.2   1 SAM   0.9060 
  8 O       -6.4720   -10.9670    -6.3850 O.co2 1 SAM  -0.9000 
  9 CB      -7.9710   -13.6770    -4.7020 C.3   1 SAM  -0.1600 
 10 HB1     -7.6801   -13.2325    -3.7502 H     1 SAM   0.0800 
 11 HB2     -7.1885   -14.3564    -5.0400 H     1 SAM   0.0800 
 12 CG      -9.2600   -14.4750    -4.4980 C.3   1 SAM  -0.1525 
 13 HG1     -9.0074   -15.4033    -3.9856 H     1 SAM   0.0800 
 14 HG2     -9.6771   -14.7033    -5.4788 H     1 SAM   0.0800 
 15 SD     -10.4330   -13.6880    -3.6030 S.3   1 SAM   0.9775 
 16 CE     -10.6990   -14.6310    -2.2670 C.3   1 SAM  -0.2325 
 17 HE1     -9.8066   -14.6343    -1.6411 H     1 SAM   0.0800 
 18 HE2    -10.9264   -15.6498    -2.5808 H     1 SAM   0.0800 
 19 HE3    -11.5389   -14.2294    -1.7002 H     1 SAM   0.0800 
 20 C5'    -11.8680   -13.7860    -4.4430 C.3   1 SAM  -0.1525 
 21 H5'1   -12.6795   -13.5497    -3.7547 H     1 SAM   0.0800 
 22 H5'2   -11.9812   -14.8095    -4.8005 H     1 SAM   0.0800 
 23 C4'    -11.9790   -12.8430    -5.6530 C.3   1 SAM   0.2000 
 24 H4'    -11.6981   -11.8706    -5.2486 H     1 SAM   0.0800 
 25 O4'    -11.1250   -13.1990    -6.7550 O.3   1 SAM  -0.5600 
 26 C3'    -13.3800   -12.8790    -6.2440 C.3   1 SAM   0.2000 
 27 H3'    -13.8474   -13.8601    -6.1594 H     1 SAM   0.0800 
 28 O3'    -14.2870   -12.0150    -5.5540 O.3   1 SAM  -0.6800 
 29 H3'    -13.9276   -11.1257    -5.5934 H     1 SAM   0.4000 
 30 C2'    -13.1610   -12.4580    -7.6760 C.3   1 SAM   0.2000 
 31 H2'    -13.9713   -12.6978    -8.3645 H     1 SAM   0.0800 
 32 O2'    -12.9970   -11.0330    -7.7330 O.3   1 SAM  -0.6800 
 33 H2'    -12.7783   -10.8020    -8.6388 H     1 SAM   0.4000 
 34 C1'    -11.8590   -13.1680    -7.9880 C.3   1 SAM   0.5691 
 35 H1'    -11.3083   -12.6700    -8.7860 H     1 SAM   0.0800 
 36 OXT     -7.1720   -10.9520    -4.2740 O.co2 1 SAM  -0.9000 
 37 N1     -14.0730   -16.1380   -11.5880 N.2   1 SAM  -0.6610 
 38 C2     -13.9800   -14.7980   -11.5310 C.2   1 SAM   0.6010 
 39 H2     -14.4110   -14.2054   -12.3244 H     1 SAM   0.0600 
 40 N3     -13.3640   -14.1790   -10.5110 N.2   1 SAM  -0.6610 
 41 C4     -12.8170   -14.9190    -9.5050 C.2   1 SAM   0.5000 
 42 C5     -12.8930   -16.3070    -9.5350 C.2   1 SAM   0.4500 
 43 C6     -13.5440   -16.9150   -10.6100 C.2   1 SAM   0.6110 
 44 N6     -13.6490   -18.2630   -10.7100 N.2   1 SAM  -0.2000 
 45 H62    -14.1258   -18.6752   -11.4992 H     1 SAM   0.4000 
 46 H61    -13.2505   -18.8550    -9.9953 H     1 SAM   0.4000 
 47 N7     -12.2710   -16.7720    -8.4180 N.2   1 SAM  -0.6960 
 48 C8     -11.8300   -15.6920    -7.7200 C.3   1 SAM   0.4551 
 49 H81    -10.7476   -15.7486    -7.6051 H     1 SAM   0.0800 
 50 H82    -12.2994   -15.6763    -6.7364 H     1 SAM   0.0800 
 51 N9     -12.1550   -14.5690    -8.3940 N.pl3 1 SAM  -0.7882 
@<TRIPOS>BOND
  1   1   2  1   
  2   1   3  1   
  3   1   4  1   
  4   1   5  1   
  5   5   6  1   
  6   5   7  1   
  7   5   9  1   
  8   7   8  ar  
  9   7  36  ar  
 10   9  10  1   
 11   9  11  1   
 12   9  12  1   
 13  12  13  1   
 14  12  14  1   
 15  12  15  1   
 16  15  16  1   
 17  15  20  1   
 18  16  17  1   
 19  16  18  1   
 20  16  19  1   
 21  20  21  1   
 22  20  22  1   
 23  20  23  1   
 24  23  24  1   
 25  23  25  1   
 26  23  26  1   
 27  25  34  1   
 28  26  27  1   
 29  26  28  1   
 30  26  30  1   
 31  28  29  1   
 32  30  31  1   
 33  30  32  1   
 34  30  34  1   
 35  32  33  1   
 36  34  35  1   
 37  34  51  1   
 38  37  38  2   
 39  37  43  1   
 40  38  39  1   
 41  38  40  1   
 42  40  41  2   
 43  41  42  1   
 44  41  51  1   
 45  42  43  1   
 46  42  47  2   
 47  43  44  2   
 48  44  45  1   
 49  44  46  1   
 50  47  48  1   
 51  48  49  1   
 52  48  50  1   
 53  48  51  1   
@<TRIPOS>SUBSTRUCTURE
  1 SAM  25 GROUP 4 A **** 0

# MOE 2022.02 (io_trps.svl 2020.11)
