@<TRIPOS>MOLECULE
5VSD.B
51 53 1 0 0 
SMALL
USER_CHARGES


@<TRIPOS>ATOM
  1 N       10.4790   -32.2800    44.5420 N.4   1 SAM  -0.8530 
  2 H1      11.0437   -32.6711    43.8015 H     1 SAM   0.4500 
  3 H2      10.4828   -32.9059    45.3347 H     1 SAM   0.4500 
  4 H3      10.8580   -31.3853    44.8177 H     1 SAM   0.4500 
  5 CA       9.0920   -32.1010    44.0620 C.3   1 SAM   0.3170 
  6 HA       8.4941   -31.6789    44.8697 H     1 SAM   0.0800 
  7 C        8.5140   -33.4230    43.6700 C.2   1 SAM   0.9060 
  8 O        9.1410   -34.4620    43.9920 O.co2 1 SAM  -0.9000 
  9 CB       9.0530   -31.1300    42.8780 C.3   1 SAM  -0.1600 
 10 HB1      8.1048   -31.2308    42.3499 H     1 SAM   0.0800 
 11 HB2      9.8742   -31.3483    42.1953 H     1 SAM   0.0800 
 12 CG       9.1940   -29.7140    43.4160 C.3   1 SAM  -0.1525 
 13 HG1      9.5313   -29.0618    42.6104 H     1 SAM   0.0800 
 14 HG2      9.9323   -29.7125    44.2179 H     1 SAM   0.0800 
 15 SD       7.7460   -29.1340    44.0120 S.3   1 SAM   0.9775 
 16 CE       7.1900   -27.9390    42.9910 C.3   1 SAM  -0.2325 
 17 HE1      7.0002   -28.3629    42.0049 H     1 SAM   0.0800 
 18 HE2      7.9401   -27.1523    42.9100 H     1 SAM   0.0800 
 19 HE3      6.2662   -27.5205    43.3905 H     1 SAM   0.0800 
 20 C5'      8.0070   -28.3890    45.4920 C.3   1 SAM  -0.1525 
 21 H5'1     7.1821   -27.7042    45.6888 H     1 SAM   0.0800 
 22 H5'2     8.9404   -27.8283    45.4412 H     1 SAM   0.0800 
 23 C4'      8.0990   -29.3940    46.6490 C.3   1 SAM   0.2000 
 24 H4'      7.2217   -30.0248    46.5061 H     1 SAM   0.0800 
 25 O4'      9.3160   -30.1610    46.6170 O.3   1 SAM  -0.5600 
 26 C3'      8.0760   -28.7340    48.0240 C.3   1 SAM   0.2000 
 27 H3'      8.4437   -27.7080    48.0100 H     1 SAM   0.0800 
 28 O3'      6.7450   -28.6570    48.5380 O.3   1 SAM  -0.6800 
 29 H3'      6.7953   -28.2775    49.4183 H     1 SAM   0.4000 
 30 C2'      8.9270   -29.6670    48.8670 C.3   1 SAM   0.2000 
 31 H2'      9.2973   -29.2078    49.7836 H     1 SAM   0.0800 
 32 O2'      8.1620   -30.8240    49.1850 O.3   1 SAM  -0.6800 
 33 H2'      7.4282   -30.5441    49.7370 H     1 SAM   0.4000 
 34 C1'      9.9900   -30.1110    47.8830 C.3   1 SAM   0.5691 
 35 H1'     10.4434   -31.0679    48.1416 H     1 SAM   0.0800 
 36 OXT      7.4270   -33.4180    43.0450 O.co2 1 SAM  -0.9000 
 37 N1      13.7880   -27.8670    50.5630 N.2   1 SAM  -0.6610 
 38 C2      12.9560   -28.8490    50.9340 C.2   1 SAM   0.6010 
 39 H2      13.0444   -29.2685    51.9253 H     1 SAM   0.0600 
 40 N3      12.0150   -29.3240    50.1030 N.2   1 SAM  -0.6610 
 41 C4      11.8870   -28.8070    48.8570 C.2   1 SAM   0.5000 
 42 C5      12.7280   -27.7890    48.4470 C.2   1 SAM   0.4500 
 43 C6      13.7010   -27.3220    49.3270 C.2   1 SAM   0.6110 
 44 N6      14.5580   -26.3310    48.9720 N.2   1 SAM  -0.2000 
 45 H62     15.2559   -26.0082    49.6269 H     1 SAM   0.4000 
 46 H61     14.4978   -25.9164    48.0530 H     1 SAM   0.4000 
 47 N7      12.3820   -27.4720    47.1670 N.2   1 SAM  -0.6960 
 48 C8      11.3530   -28.2720    46.8130 C.3   1 SAM   0.4551 
 49 H81     11.6355   -28.8699    45.9465 H     1 SAM   0.0800 
 50 H82     10.4837   -27.6625    46.5661 H     1 SAM   0.0800 
 51 N9      11.0570   -29.0850    47.8470 N.pl3 1 SAM  -0.7882 
@<TRIPOS>BOND
  1   1   2  1   
  2   1   3  1   
  3   1   4  1   
  4   1   5  1   
  5   5   6  1   
  6   5   7  1   
  7   5   9  1   
  8   7   8  ar  
  9   7  36  ar  
 10   9  10  1   
 11   9  11  1   
 12   9  12  1   
 13  12  13  1   
 14  12  14  1   
 15  12  15  1   
 16  15  16  1   
 17  15  20  1   
 18  16  17  1   
 19  16  18  1   
 20  16  19  1   
 21  20  21  1   
 22  20  22  1   
 23  20  23  1   
 24  23  24  1   
 25  23  25  1   
 26  23  26  1   
 27  25  34  1   
 28  26  27  1   
 29  26  28  1   
 30  26  30  1   
 31  28  29  1   
 32  30  31  1   
 33  30  32  1   
 34  30  34  1   
 35  32  33  1   
 36  34  35  1   
 37  34  51  1   
 38  37  38  2   
 39  37  43  1   
 40  38  39  1   
 41  38  40  1   
 42  40  41  2   
 43  41  42  1   
 44  41  51  1   
 45  42  43  1   
 46  42  47  2   
 47  43  44  2   
 48  44  45  1   
 49  44  46  1   
 50  47  48  1   
 51  48  49  1   
 52  48  50  1   
 53  48  51  1   
@<TRIPOS>SUBSTRUCTURE
  1 SAM  25 GROUP 4 B **** 0

# MOE 2022.02 (io_trps.svl 2020.11)
