# created with PyMOL 2.5.0
@<TRIPOS>MOLECULE
5VSD
27 29 1                 
SMALL
USER_CHARGES
@<TRIPOS>ATOM
1	   N	10.479	-32.280	44.542	N.3	1	SAM3001	0.000	
2	  CA	9.092	-32.101	44.062	C.3	1	SAM3001	0.000	
3	   C	8.514	-33.423	43.670	C.2	1	SAM3001	0.000	
4	   O	9.141	-34.462	43.992	O.co2	1	SAM3001	0.000	
5	  CB	9.053	-31.130	42.878	C.3	1	SAM3001	0.000	
6	  CG	9.194	-29.714	43.416	C.3	1	SAM3001	0.000	
7	  SD	7.746	-29.134	44.012	S.3	1	SAM3001	0.000	
8	  CE	7.190	-27.939	42.991	C.3	1	SAM3001	0.000	
9	 C5'	8.007	-28.389	45.492	C.3	1	SAM3001	0.000	
10	 C4'	8.099	-29.394	46.649	C.3	1	SAM3001	0.000	
11	 O4'	9.316	-30.161	46.617	O.3	1	SAM3001	0.000	
12	 C3'	8.076	-28.734	48.024	C.3	1	SAM3001	0.000	
13	 O3'	6.745	-28.657	48.538	O.3	1	SAM3001	0.000	
14	 C2'	8.927	-29.667	48.867	C.3	1	SAM3001	0.000	
15	 O2'	8.162	-30.824	49.185	O.3	1	SAM3001	0.000	
16	 C1'	9.990	-30.111	47.883	C.3	1	SAM3001	0.000	
17	 OXT	7.427	-33.418	43.045	O.co2	1	SAM3001	0.000	
18	  N1	13.788	-27.867	50.563	N.2	1	SAM3001	0.000	
19	  C2	12.956	-28.849	50.934	C.2	1	SAM3001	0.000	
20	  N3	12.015	-29.324	50.103	N.2	1	SAM3001	0.000	
21	  C4	11.887	-28.807	48.857	C.2	1	SAM3001	0.000	
22	  C5	12.728	-27.789	48.447	C.2	1	SAM3001	0.000	
23	  C6	13.701	-27.322	49.327	C.2	1	SAM3001	0.000	
24	  N6	14.558	-26.331	48.972	N.pl3	1	SAM3001	0.000	
25	  N7	12.382	-27.472	47.167	N.2	1	SAM3001	0.000	
26	  C8	11.353	-28.272	46.813	C.2	1	SAM3001	0.000	
27	  N9	11.057	-29.085	47.847	N.2	1	SAM3001	0.000	
@<TRIPOS>BOND
1 1 2 1
2 2 3 1
3 2 5 1
4 3 4 ar
5 3 17 ar
6 5 6 1
7 6 7 1
8 7 8 1
9 7 9 1
10 9 10 1
11 10 11 1
12 10 12 1
13 11 16 1
14 12 13 1
15 12 14 1
16 14 15 1
17 14 16 1
18 16 27 1
19 18 19 ar
20 18 23 ar
21 19 20 ar
22 20 21 ar
23 21 22 ar
24 21 27 ar
25 22 23 ar
26 22 25 ar
27 23 24 1
28 25 26 ar
29 26 27 ar
@<TRIPOS>SUBSTRUCTURE
1	SAM3001	1	GROUP	1 B	SAM
