# created with PyMOL 2.5.2
@<TRIPOS>MOLECULE
6IX9
25 28 1                 
SMALL
USER_CHARGES
@<TRIPOS>ATOM
1	 O01	-48.939	-8.075	29.107	O.2	1	B0O401	0.000	
2	 C02	-49.319	-8.588	28.114	C.2	1	B0O401	0.000	
3	 C03	-48.853	-9.974	27.706	C.2	1	B0O401	0.000	
4	 C04	-49.353	-10.637	26.408	C.2	1	B0O401	0.000	
5	 C05	-50.313	-9.928	25.520	C.2	1	B0O401	0.000	
6	 C06	-50.814	-10.460	24.190	C.2	1	B0O401	0.000	
7	 C07	-52.144	-10.626	23.867	C.2	1	B0O401	0.000	
8	 C08	-52.444	-11.087	22.593	C.2	1	B0O401	0.000	
9	 C09	-51.447	-11.340	21.659	C.2	1	B0O401	0.000	
10	 C10	-50.119	-11.140	21.977	C.2	1	B0O401	0.000	
11	 C11	-49.812	-10.686	23.250	C.2	1	B0O401	0.000	
12	 C12	-50.737	-8.535	25.953	C.2	1	B0O401	0.000	
13	 N13	-50.273	-7.892	27.236	N.2	1	B0O401	0.000	
14	 O14	-48.884	-11.941	26.182	O.3	1	B0O401	0.000	
15	 C15	-49.075	-12.785	27.585	C.3	1	B0O401	0.000	
16	 C16	-50.562	-13.166	27.719	C.2	1	B0O401	0.000	
17	 C17	-51.489	-12.301	28.103	C.2	1	B0O401	0.000	
18	 C18	-52.947	-12.742	28.212	C.3	1	B0O401	0.000	
19	 C19	-48.706	-12.143	28.754	C.3	1	B0O401	0.000	
20	 C20	-47.960	-10.740	28.493	C.3	1	B0O401	0.000	
21	 C21	-46.589	-10.980	27.763	C.3	1	B0O401	0.000	
22	 C22	-45.953	-9.692	27.347	C.3	1	B0O401	0.000	
23	 C23	-45.594	-11.831	28.659	C.3	1	B0O401	0.000	
24	 C24	-46.291	-13.107	29.361	C.3	1	B0O401	0.000	
25	 C25	-47.813	-13.014	29.728	C.3	1	B0O401	0.000	
@<TRIPOS>BOND
1 1 2 2
2 2 3 ar
3 2 13 ar
4 3 4 ar
5 3 20 1
6 4 5 ar
7 4 14 1
8 5 6 1
9 5 12 ar
10 6 7 ar
11 6 11 ar
12 7 8 ar
13 8 9 ar
14 9 10 ar
15 10 11 ar
16 12 13 ar
17 14 15 1
18 15 16 1
19 15 19 1
20 17 18 1
21 19 20 1
22 19 25 1
23 20 21 1
24 21 22 1
25 21 23 1
26 23 24 1
27 24 25 1
28 16 17 2
@<TRIPOS>SUBSTRUCTURE
1	B0O401	1	GROUP	1 B	B0O
