@<TRIPOS>MOLECULE
6IX9.B
50 53 1 0 0 
SMALL
USER_CHARGES


@<TRIPOS>ATOM
  1 O01    -48.9390    -8.0750    29.1070 O.2   1 B0O  -0.5700 
  2 C02    -49.3190    -8.5880    28.1140 C.2   1 B0O   0.6156 
  3 C03    -48.8530    -9.9740    27.7060 C.2   1 B0O  -0.1238 
  4 C04    -49.3530   -10.6370    26.4080 C.2   1 B0O   0.0767 
  5 C05    -50.3130    -9.9280    25.5200 C.2   1 B0O  -0.0284 
  6 C06    -50.8140   -10.4600    24.1900 C.ar  1 B0O   0.0284 
  7 C07    -52.1440   -10.6260    23.8670 C.ar  1 B0O  -0.1500 
  8 H07    -52.9245   -10.4051    24.5801 H     1 B0O   0.1500 
  9 C08    -52.4440   -11.0870    22.5930 C.ar  1 B0O  -0.1500 
 10 H08    -53.4760   -11.2529    22.3213 H     1 B0O   0.1500 
 11 C09    -51.4470   -11.3400    21.6590 C.ar  1 B0O  -0.1500 
 12 H09    -51.7137   -11.6965    20.6750 H     1 B0O   0.1500 
 13 C10    -50.1190   -11.1400    21.9770 C.ar  1 B0O  -0.1500 
 14 H10    -49.3403   -11.3320    21.2537 H     1 B0O   0.1500 
 15 C11    -49.8120   -10.6860    23.2500 C.ar  1 B0O  -0.1500 
 16 H11    -48.7812   -10.5050    23.5166 H     1 B0O   0.1500 
 17 C12    -50.7370    -8.5350    25.9530 C.2   1 B0O  -0.0410 
 18 H12    -51.4031    -7.9780    25.3109 H     1 B0O   0.1500 
 19 N13    -50.2730    -7.8920    27.2360 N.am  1 B0O  -0.5390 
 20 H13    -50.6189    -6.9788    27.4939 H     1 B0O   0.3700 
 21 O14    -48.8840   -11.9410    26.1820 O.3   1 B0O  -0.3567 
 22 C15    -49.0750   -12.7850    27.5850 C.3   1 B0O   0.3382 
 23 H15    -48.3969   -13.6332    27.4912 H     1 B0O   0.0800 
 24 C16    -50.5620   -13.1660    27.7190 C.2   1 B0O  -0.2882 
 25 H16    -50.8604   -14.1786    27.4908 H     1 B0O   0.1500 
 26 C17    -51.4890   -12.3010    28.1030 C.2   1 B0O  -0.2882 
 27 H17    -51.2136   -11.2837    28.3390 H     1 B0O   0.1500 
 28 C18    -52.9470   -12.7420    28.2120 C.3   1 B0O  -0.1018 
 29 H181   -53.5576   -11.9006    28.5396 H     1 B0O   0.0800 
 30 H182   -53.0281   -13.5532    28.9355 H     1 B0O   0.0800 
 31 H183   -53.2960   -13.0870    27.2387 H     1 B0O   0.0800 
 32 C19    -48.7060   -12.1430    28.7540 C.3   1 B0O  -0.0800 
 33 H19    -49.6620   -11.9633    29.2458 H     1 B0O   0.0800 
 34 C20    -47.9600   -10.7400    28.4930 C.3   1 B0O   0.0582 
 35 H20    -47.7205   -10.2187    29.4198 H     1 B0O   0.0800 
 36 C21    -46.5890   -10.9800    27.7630 C.3   1 B0O  -0.0800 
 37 H21    -46.8052   -11.5532    26.8615 H     1 B0O   0.0800 
 38 C22    -45.9530    -9.6920    27.3470 C.3   1 B0O  -0.2400 
 39 H221   -45.7254    -9.0969    28.2314 H     1 B0O   0.0800 
 40 H222   -46.6380    -9.1396    26.7038 H     1 B0O   0.0800 
 41 H223   -45.0320    -9.9007    26.8026 H     1 B0O   0.0800 
 42 C23    -45.5940   -11.8310    28.6590 C.3   1 B0O  -0.1600 
 43 H231   -45.1932   -11.1841    29.4393 H     1 B0O   0.0800 
 44 H232   -44.7795   -12.1865    28.0279 H     1 B0O   0.0800 
 45 C24    -46.2910   -13.1070    29.3610 C.3   1 B0O  -0.1600 
 46 H241   -45.7476   -13.3039    30.2851 H     1 B0O   0.0800 
 47 H242   -46.1735   -13.9525    28.6832 H     1 B0O   0.0800 
 48 C25    -47.8130   -13.0140    29.7280 C.3   1 B0O  -0.1600 
 49 H251   -48.2172   -14.0263    29.7363 H     1 B0O   0.0800 
 50 H252   -47.8903   -12.5838    30.7265 H     1 B0O   0.0800 
@<TRIPOS>BOND
  1   1   2  2   
  2   2   3  1   
  3   2  19  am  
  4   3   4  2   
  5   3  34  1   
  6   4   5  1   
  7   4  21  1   
  8   5   6  1   
  9   5  17  2   
 10   6   7  ar  
 11   6  15  ar  
 12   7   8  1   
 13   7   9  ar  
 14   9  10  1   
 15   9  11  ar  
 16  11  12  1   
 17  11  13  ar  
 18  13  14  1   
 19  13  15  ar  
 20  15  16  1   
 21  17  18  1   
 22  17  19  1   
 23  19  20  1   
 24  21  22  1   
 25  22  23  1   
 26  22  24  1   
 27  22  32  1   
 28  24  25  1   
 29  24  26  2   
 30  26  27  1   
 31  26  28  1   
 32  28  29  1   
 33  28  30  1   
 34  28  31  1   
 35  32  33  1   
 36  32  34  1   
 37  32  48  1   
 38  34  35  1   
 39  34  36  1   
 40  36  37  1   
 41  36  38  1   
 42  36  42  1   
 43  38  39  1   
 44  38  40  1   
 45  38  41  1   
 46  42  43  1   
 47  42  44  1   
 48  42  45  1   
 49  45  46  1   
 50  45  47  1   
 51  45  48  1   
 52  48  49  1   
 53  48  50  1   
@<TRIPOS>SUBSTRUCTURE
  1 B0O   4 GROUP 4 B **** 0

# MOE 2022.02 (io_trps.svl 2020.11)
