@<TRIPOS>MOLECULE
6IX9.A
51 53 1 0 0 
SMALL
USER_CHARGES


@<TRIPOS>ATOM
  1 N      -12.1860   -28.2940    13.0900 N.4   1 SAM  -0.8530 
  2 H1     -12.6740   -28.7588    13.8423 H     1 SAM   0.4500 
  3 H2     -11.2001   -28.2498    13.3048 H     1 SAM   0.4500 
  4 H3     -12.3208   -28.8096    12.2320 H     1 SAM   0.4500 
  5 CA     -12.7050   -26.9560    12.9340 C.3   1 SAM   0.3170 
  6 HA     -12.1402   -26.5138    12.1132 H     1 SAM   0.0800 
  7 C      -12.5050   -26.0660    14.1600 C.2   1 SAM   0.9060 
  8 O      -12.3370   -26.5370    15.3050 O.co2 1 SAM  -0.9000 
  9 CB     -14.1960   -27.0140    12.6290 C.3   1 SAM  -0.1600 
 10 HB1    -14.7443   -27.0728    13.5692 H     1 SAM   0.0800 
 11 HB2    -14.3979   -27.9049    12.0343 H     1 SAM   0.0800 
 12 CG     -14.6720   -25.7990    11.8630 C.3   1 SAM  -0.1525 
 13 HG1    -14.0830   -25.7078    10.9504 H     1 SAM   0.0800 
 14 HG2    -14.5223   -24.9144    12.4820 H     1 SAM   0.0800 
 15 SD     -16.4200   -25.9060    11.4170 S.3   1 SAM   0.9775 
 16 CE     -17.2600   -26.5760    12.8830 C.3   1 SAM  -0.2325 
 17 HE1    -17.2544   -25.8299    13.6776 H     1 SAM   0.0800 
 18 HE2    -16.7399   -27.4719    13.2221 H     1 SAM   0.0800 
 19 HE3    -18.2895   -26.8280    12.6284 H     1 SAM   0.0800 
 20 C5'    -16.4930   -27.2260    10.1760 C.3   1 SAM  -0.1525 
 21 H5'1   -17.4608   -27.1819     9.6765 H     1 SAM   0.0800 
 22 H5'2   -16.3884   -28.1860    10.6815 H     1 SAM   0.0800 
 23 C4'    -15.3930   -27.1060     9.1220 C.3   1 SAM   0.2000 
 24 H4'    -14.4437   -27.1111     9.6576 H     1 SAM   0.0800 
 25 O4'    -15.5380   -28.1760     8.2090 O.3   1 SAM  -0.5600 
 26 C3'    -15.4790   -25.8220     8.2970 C.3   1 SAM   0.2000 
 27 H3'    -16.1355   -25.0703     8.7352 H     1 SAM   0.0800 
 28 O3'    -14.1790   -25.2430     8.1860 O.3   1 SAM  -0.6800 
 29 H3'    -14.2525   -24.4709     7.6203 H     1 SAM   0.4000 
 30 C2'    -15.9580   -26.2930     6.9390 C.3   1 SAM   0.2000 
 31 H2'    -17.0406   -26.2053     6.8469 H     1 SAM   0.0800 
 32 O2'    -15.4460   -25.5710     5.8560 O.3   1 SAM  -0.6800 
 33 H2'    -14.4884   -25.6227     5.8993 H     1 SAM   0.4000 
 34 C1'    -15.3500   -27.6750     6.8940 C.3   1 SAM   0.5691 
 35 H1'    -14.3061   -27.6291     6.5837 H     1 SAM   0.0800 
 36 OXT    -12.5600   -24.8350    14.0010 O.co2 1 SAM  -0.9000 
 37 N1     -14.4080   -31.3030     3.3700 N.2   1 SAM  -0.6610 
 38 C2     -13.5050   -30.6220     4.1410 C.2   1 SAM   0.6010 
 39 H2     -12.4499   -30.8369     4.0578 H     1 SAM   0.0600 
 40 N3     -13.9470   -29.6630     5.0220 N.2   1 SAM  -0.6610 
 41 C4     -15.2830   -29.4280     5.1240 C.2   1 SAM   0.5000 
 42 C5     -16.2120   -30.1190     4.3510 C.2   1 SAM   0.4500 
 43 C6     -15.7580   -31.0720     3.4550 C.2   1 SAM   0.6110 
 44 N6     -16.5990   -31.7620     2.6850 N.2   1 SAM  -0.2000 
 45 H62    -16.2422   -32.4518     2.0393 H     1 SAM   0.4000 
 46 H61    -17.5932   -31.5950     2.7471 H     1 SAM   0.4000 
 47 N7     -17.4610   -29.6620     4.6640 N.2   1 SAM  -0.6960 
 48 C8     -17.3340   -28.7120     5.6410 C.3   1 SAM   0.4551 
 49 H81    -17.8612   -29.0327     6.5395 H     1 SAM   0.0800 
 50 H82    -17.7500   -27.7663     5.2937 H     1 SAM   0.0800 
 51 N9     -15.9840   -28.5590     5.9170 N.pl3 1 SAM  -0.7882 
@<TRIPOS>BOND
  1   1   2  1   
  2   1   3  1   
  3   1   4  1   
  4   1   5  1   
  5   5   6  1   
  6   5   7  1   
  7   5   9  1   
  8   7   8  ar  
  9   7  36  ar  
 10   9  10  1   
 11   9  11  1   
 12   9  12  1   
 13  12  13  1   
 14  12  14  1   
 15  12  15  1   
 16  15  16  1   
 17  15  20  1   
 18  16  17  1   
 19  16  18  1   
 20  16  19  1   
 21  20  21  1   
 22  20  22  1   
 23  20  23  1   
 24  23  24  1   
 25  23  25  1   
 26  23  26  1   
 27  25  34  1   
 28  26  27  1   
 29  26  28  1   
 30  26  30  1   
 31  28  29  1   
 32  30  31  1   
 33  30  32  1   
 34  30  34  1   
 35  32  33  1   
 36  34  35  1   
 37  34  51  1   
 38  37  38  2   
 39  37  43  1   
 40  38  39  1   
 41  38  40  1   
 42  40  41  2   
 43  41  42  1   
 44  41  51  1   
 45  42  43  1   
 46  42  47  2   
 47  43  44  2   
 48  44  45  1   
 49  44  46  1   
 50  47  48  1   
 51  48  49  1   
 52  48  50  1   
 53  48  51  1   
@<TRIPOS>SUBSTRUCTURE
  1 SAM  25 GROUP 4 A **** 0

# MOE 2022.02 (io_trps.svl 2020.11)
