# created with PyMOL 2.5.0
@<TRIPOS>MOLECULE
6IX9
27 29 1                 
SMALL
USER_CHARGES
@<TRIPOS>ATOM
1	   N	-59.009	-7.925	33.731	N.3	1	SAM402	0.000	
2	  CA	-59.036	-9.398	33.673	C.3	1	SAM402	0.000	
3	   C	-57.979	-10.049	34.558	C.2	1	SAM402	0.000	
4	   O	-57.856	-11.277	34.509	O.co2	1	SAM402	0.000	
5	  CB	-58.841	-9.967	32.255	C.3	1	SAM402	0.000	
6	  CG	-57.664	-9.440	31.461	C.3	1	SAM402	0.000	
7	  SD	-57.370	-10.158	29.798	S.3	1	SAM402	0.000	
8	  CE	-55.652	-9.568	29.739	C.3	1	SAM402	0.000	
9	 C5'	-58.258	-8.952	28.791	C.3	1	SAM402	0.000	
10	 C4'	-59.764	-9.137	28.883	C.3	1	SAM402	0.000	
11	 O4'	-60.347	-8.113	28.093	O.3	1	SAM402	0.000	
12	 C3'	-60.278	-10.473	28.325	C.3	1	SAM402	0.000	
13	 O3'	-61.157	-11.136	29.228	O.3	1	SAM402	0.000	
14	 C2'	-61.058	-10.077	27.078	C.3	1	SAM402	0.000	
15	 O2'	-62.186	-10.893	26.794	O.3	1	SAM402	0.000	
16	 C1'	-61.468	-8.664	27.429	C.3	1	SAM402	0.000	
17	 OXT	-57.245	-9.403	35.317	O.co2	1	SAM402	0.000	
18	  N1	-64.783	-5.229	25.539	N.2	1	SAM402	0.000	
19	  C2	-64.818	-5.877	26.746	C.2	1	SAM402	0.000	
20	  N3	-63.830	-6.768	27.086	N.2	1	SAM402	0.000	
21	  C4	-62.837	-7.019	26.184	C.2	1	SAM402	0.000	
22	  C5	-62.791	-6.392	24.955	C.2	1	SAM402	0.000	
23	  C6	-63.802	-5.482	24.621	C.2	1	SAM402	0.000	
24	  N6	-63.822	-4.836	23.452	N.pl3	1	SAM402	0.000	
25	  N7	-61.694	-6.849	24.294	N.2	1	SAM402	0.000	
26	  C8	-61.031	-7.736	25.090	C.2	1	SAM402	0.000	
27	  N9	-61.761	-7.841	26.254	N.2	1	SAM402	0.000	
@<TRIPOS>BOND
1 1 2 1
2 2 3 1
3 2 5 1
4 3 4 ar
5 3 17 ar
6 5 6 1
7 6 7 1
8 7 8 1
9 7 9 1
10 9 10 1
11 10 11 1
12 10 12 1
13 11 16 1
14 12 13 1
15 12 14 1
16 14 15 1
17 14 16 1
18 16 27 1
19 18 19 ar
20 18 23 ar
21 19 20 ar
22 20 21 ar
23 21 22 ar
24 21 27 ar
25 22 23 ar
26 22 25 ar
27 23 24 1
28 25 26 ar
29 26 27 ar
@<TRIPOS>SUBSTRUCTURE
1	SAM402	1	GROUP	1 B	SAM
