@<TRIPOS>MOLECULE
6IX9.B
51 53 1 0 0 
SMALL
USER_CHARGES


@<TRIPOS>ATOM
  1 N      -59.0090    -7.9250    33.7310 N.4   1 SAM  -0.8530 
  2 H1     -58.1098    -7.5920    33.4137 H     1 SAM   0.4500 
  3 H2     -59.1635    -7.6226    34.6822 H     1 SAM   0.4500 
  4 H3     -59.7352    -7.5513    33.1368 H     1 SAM   0.4500 
  5 CA     -59.0360    -9.3980    33.6730 C.3   1 SAM   0.3170 
  6 HA     -60.0364    -9.6398    34.0320 H     1 SAM   0.0800 
  7 C      -57.9790   -10.0490    34.5580 C.2   1 SAM   0.9060 
  8 O      -57.8560   -11.2770    34.5090 O.co2 1 SAM  -0.9000 
  9 CB     -58.8410    -9.9670    32.2550 C.3   1 SAM  -0.1600 
 10 HB1    -59.7453    -9.7506    31.6862 H     1 SAM   0.0800 
 11 HB2    -58.7193   -11.0463    32.3471 H     1 SAM   0.0800 
 12 CG     -57.6640    -9.4400    31.4610 C.3   1 SAM  -0.1525 
 13 HG1    -56.7664    -9.6139    32.0544 H     1 SAM   0.0800 
 14 HG2    -57.8119    -8.3679    31.3316 H     1 SAM   0.0800 
 15 SD     -57.3700   -10.1580    29.7980 S.3   1 SAM   0.9775 
 16 CE     -55.6520    -9.5680    29.7390 C.3   1 SAM  -0.2325 
 17 HE1    -55.0186   -10.2346    30.3243 H     1 SAM   0.0800 
 18 HE2    -55.5993    -8.5608    30.1524 H     1 SAM   0.0800 
 19 HE3    -55.3077    -9.5547    28.7049 H     1 SAM   0.0800 
 20 C5'    -58.2580    -8.9520    28.7910 C.3   1 SAM  -0.1525 
 21 H5'1   -57.9516    -9.0669    27.7513 H     1 SAM   0.0800 
 22 H5'2   -58.0042    -7.9496    29.1359 H     1 SAM   0.0800 
 23 C4'    -59.7640    -9.1370    28.8830 C.3   1 SAM   0.2000 
 24 H4'    -60.0283    -9.1089    29.9401 H     1 SAM   0.0800 
 25 O4'    -60.3470    -8.1130    28.0930 O.3   1 SAM  -0.5600 
 26 C3'    -60.2780   -10.4730    28.3250 C.3   1 SAM   0.2000 
 27 H3'    -59.4536   -11.1616    28.1397 H     1 SAM   0.0800 
 28 O3'    -61.1570   -11.1360    29.2280 O.3   1 SAM  -0.6800 
 29 H3'    -61.4544   -11.9439    28.8031 H     1 SAM   0.4000 
 30 C2'    -61.0580   -10.0770    27.0780 C.3   1 SAM   0.2000 
 31 H2'    -60.4670   -10.1838    26.1684 H     1 SAM   0.0800 
 32 O2'    -62.1860   -10.8930    26.7940 O.3   1 SAM  -0.6800 
 33 H2'    -62.7696   -10.8566    27.5553 H     1 SAM   0.4000 
 34 C1'    -61.4680    -8.6640    27.4290 C.3   1 SAM   0.5691 
 35 H1'    -62.3799    -8.6824    28.0259 H     1 SAM   0.0800 
 36 OXT    -57.2450    -9.4030    35.3170 O.co2 1 SAM  -0.9000 
 37 N1     -64.7830    -5.2290    25.5390 N.2   1 SAM  -0.6610 
 38 C2     -64.8180    -5.8770    26.7460 C.2   1 SAM   0.6010 
 39 H2     -65.6279    -5.6857    27.4343 H     1 SAM   0.0600 
 40 N3     -63.8300    -6.7680    27.0860 N.2   1 SAM  -0.6610 
 41 C4     -62.8370    -7.0190    26.1840 C.2   1 SAM   0.5000 
 42 C5     -62.7910    -6.3920    24.9550 C.2   1 SAM   0.4500 
 43 C6     -63.8020    -5.4820    24.6210 C.2   1 SAM   0.6110 
 44 N6     -63.8220    -4.8360    23.4520 N.2   1 SAM  -0.2000 
 45 H62    -64.5679    -4.1867    23.2465 H     1 SAM   0.4000 
 46 H61    -63.0912    -4.9968    22.7736 H     1 SAM   0.4000 
 47 N7     -61.6940    -6.8490    24.2940 N.2   1 SAM  -0.6960 
 48 C8     -61.0310    -7.7360    25.0900 C.3   1 SAM   0.4551 
 49 H81    -60.0275    -7.3698    25.3069 H     1 SAM   0.0800 
 50 H82    -60.9652    -8.7066    24.5983 H     1 SAM   0.0800 
 51 N9     -61.7610    -7.8410    26.2540 N.pl3 1 SAM  -0.7882 
@<TRIPOS>BOND
  1   1   2  1   
  2   1   3  1   
  3   1   4  1   
  4   1   5  1   
  5   5   6  1   
  6   5   7  1   
  7   5   9  1   
  8   7   8  ar  
  9   7  36  ar  
 10   9  10  1   
 11   9  11  1   
 12   9  12  1   
 13  12  13  1   
 14  12  14  1   
 15  12  15  1   
 16  15  16  1   
 17  15  20  1   
 18  16  17  1   
 19  16  18  1   
 20  16  19  1   
 21  20  21  1   
 22  20  22  1   
 23  20  23  1   
 24  23  24  1   
 25  23  25  1   
 26  23  26  1   
 27  25  34  1   
 28  26  27  1   
 29  26  28  1   
 30  26  30  1   
 31  28  29  1   
 32  30  31  1   
 33  30  32  1   
 34  30  34  1   
 35  32  33  1   
 36  34  35  1   
 37  34  51  1   
 38  37  38  2   
 39  37  43  1   
 40  38  39  1   
 41  38  40  1   
 42  40  41  2   
 43  41  42  1   
 44  41  51  1   
 45  42  43  1   
 46  42  47  2   
 47  43  44  2   
 48  44  45  1   
 49  44  46  1   
 50  47  48  1   
 51  48  49  1   
 52  48  50  1   
 53  48  51  1   
@<TRIPOS>SUBSTRUCTURE
  1 SAM  25 GROUP 4 B **** 0

# MOE 2022.02 (io_trps.svl 2020.11)
