# created with PyMOL 2.4.0
@<TRIPOS>MOLECULE
temp
50 52 1                 
SMALL
USER_CHARGES
@<TRIPOS>ATOM
1	   N	-59.009	-7.925	33.731	N.4	1	SAM1	0.000	
2	  CA	-59.036	-9.398	33.673	C.3	1	SAM1	0.000	
3	   C	-57.979	-10.049	34.558	C.2	1	SAM1	0.000	
4	   O	-57.856	-11.277	34.509	O.co2	1	SAM1	0.000	
5	  CB	-58.841	-9.967	32.255	C.3	1	SAM1	0.000	
6	  CG	-57.664	-9.440	31.461	C.3	1	SAM1	0.000	
7	  SD	-57.370	-10.158	29.798	S.3	1	SAM1	0.000	
8	  CE	-55.652	-9.568	29.739	C.3	1	SAM1	0.000	
9	 C5'	-58.258	-8.952	28.791	C.3	1	SAM1	0.000	
10	 C4'	-59.764	-9.137	28.883	C.3	1	SAM1	0.000	
11	 O4'	-60.347	-8.113	28.093	O.3	1	SAM1	0.000	
12	 C3'	-60.278	-10.473	28.325	C.3	1	SAM1	0.000	
13	 O3'	-61.157	-11.136	29.228	O.3	1	SAM1	0.000	
14	 C2'	-61.058	-10.077	27.078	C.3	1	SAM1	0.000	
15	 O2'	-62.186	-10.893	26.794	O.3	1	SAM1	0.000	
16	 C1'	-61.468	-8.664	27.429	C.3	1	SAM1	0.000	
17	 OXT	-57.245	-9.403	35.317	O.co2	1	SAM1	0.000	
18	  N1	-64.783	-5.229	25.539	N.2	1	SAM1	0.000	
19	  C2	-64.818	-5.877	26.746	C.2	1	SAM1	0.000	
20	  N3	-63.830	-6.768	27.086	N.2	1	SAM1	0.000	
21	  C4	-62.837	-7.019	26.184	C.2	1	SAM1	0.000	
22	  C5	-62.791	-6.392	24.955	C.2	1	SAM1	0.000	
23	  C6	-63.802	-5.482	24.621	C.2	1	SAM1	0.000	
24	  N6	-63.822	-4.836	23.452	N.pl3	1	SAM1	0.000	
25	  N7	-61.694	-6.849	24.294	N.2	1	SAM1	0.000	
26	  C8	-61.031	-7.736	25.090	C.2	1	SAM1	0.000	
27	  N9	-61.761	-7.841	26.254	N.2	1	SAM1	0.000	
28	  HA	-60.036	-9.640	34.032	 H	1	SAM1	0.000	
29	 HB1	-59.745	-9.751	31.686	 H	1	SAM1	0.000	
30	 HB2	-58.719	-11.046	32.347	 H	1	SAM1	0.000	
31	 HG1	-56.766	-9.614	32.054	 H	1	SAM1	0.000	
32	 HG2	-57.812	-8.368	31.332	 H	1	SAM1	0.000	
33	 HE1	-55.019	-10.235	30.324	 H	1	SAM1	0.000	
34	 HE2	-55.599	-8.561	30.152	 H	1	SAM1	0.000	
35	 HE3	-55.308	-9.555	28.705	 H	1	SAM1	0.000	
36	  H1	-58.110	-7.592	33.414	 H	1	SAM1	0.000	
37	  H2	-59.164	-7.623	34.682	 H	1	SAM1	0.000	
38	  H2	-65.628	-5.686	27.434	 H	1	SAM1	0.000	
39	  H3	-59.735	-7.551	33.137	 H	1	SAM1	0.000	
40	  H8	-60.113	-8.255	24.854	 H	1	SAM1	0.000	
41	 H1'	-62.380	-8.682	28.026	 H	1	SAM1	0.000	
42	 H2'	-60.467	-10.184	26.168	 H	1	SAM1	0.000	
43	 H2'	-61.868	-11.786	26.642	 H	1	SAM1	0.000	
44	 H3'	-59.454	-11.162	28.140	 H	1	SAM1	0.000	
45	 H3'	-61.454	-11.944	28.803	 H	1	SAM1	0.000	
46	 H4'	-60.028	-9.109	29.940	 H	1	SAM1	0.000	
47	 H61	-63.091	-4.997	22.774	 H	1	SAM1	0.000	
48	 H62	-64.568	-4.187	23.247	 H	1	SAM1	0.000	
49	H5'1	-57.952	-9.067	27.751	 H	1	SAM1	0.000	
50	H5'2	-58.004	-7.950	29.136	 H	1	SAM1	0.000	
@<TRIPOS>BOND
1 1 2 1
2 1 36 1
3 1 37 1
4 1 39 1
5 2 3 1
6 2 5 1
7 2 28 1
8 3 4 ar
9 3 17 ar
10 5 6 1
11 5 29 1
12 5 30 1
13 6 7 1
14 6 31 1
15 6 32 1
16 7 8 1
17 7 9 1
18 8 33 1
19 8 34 1
20 8 35 1
21 9 10 1
22 9 49 1
23 9 50 1
24 10 11 1
25 10 12 1
26 10 46 1
27 11 16 1
28 12 13 1
29 12 14 1
30 12 44 1
31 13 45 1
32 14 15 1
33 14 16 1
34 14 42 1
35 15 43 1
36 16 27 1
37 16 41 1
38 18 19 ar
39 18 23 ar
40 19 20 ar
41 19 38 1
42 20 21 ar
43 21 22 ar
44 21 27 ar
45 22 23 ar
46 22 25 ar
47 23 24 1
48 24 47 1
49 24 48 1
50 25 26 ar
51 26 27 ar
52 26 40 1
@<TRIPOS>SUBSTRUCTURE
1	SAM1	1	GROUP	1 B	SAM
