# created with PyMOL 2.5.0
@<TRIPOS>MOLECULE
6IX9
27 29 1                 
SMALL
USER_CHARGES
@<TRIPOS>ATOM
1	   N	-12.186	-28.294	13.090	N.3	1	SAM401	0.000	
2	  CA	-12.705	-26.956	12.934	C.3	1	SAM401	0.000	
3	   C	-12.505	-26.066	14.160	C.2	1	SAM401	0.000	
4	   O	-12.337	-26.537	15.305	O.co2	1	SAM401	0.000	
5	  CB	-14.196	-27.014	12.629	C.3	1	SAM401	0.000	
6	  CG	-14.672	-25.799	11.863	C.3	1	SAM401	0.000	
7	  SD	-16.420	-25.906	11.417	S.3	1	SAM401	0.000	
8	  CE	-17.260	-26.576	12.883	C.3	1	SAM401	0.000	
9	 C5'	-16.493	-27.226	10.176	C.3	1	SAM401	0.000	
10	 C4'	-15.393	-27.106	9.122	C.3	1	SAM401	0.000	
11	 O4'	-15.538	-28.176	8.209	O.3	1	SAM401	0.000	
12	 C3'	-15.479	-25.822	8.297	C.3	1	SAM401	0.000	
13	 O3'	-14.179	-25.243	8.186	O.3	1	SAM401	0.000	
14	 C2'	-15.958	-26.293	6.939	C.3	1	SAM401	0.000	
15	 O2'	-15.446	-25.571	5.856	O.3	1	SAM401	0.000	
16	 C1'	-15.350	-27.675	6.894	C.3	1	SAM401	0.000	
17	 OXT	-12.560	-24.835	14.001	O.co2	1	SAM401	0.000	
18	  N1	-14.408	-31.303	3.370	N.2	1	SAM401	0.000	
19	  C2	-13.505	-30.622	4.141	C.2	1	SAM401	0.000	
20	  N3	-13.947	-29.663	5.022	N.2	1	SAM401	0.000	
21	  C4	-15.283	-29.428	5.124	C.2	1	SAM401	0.000	
22	  C5	-16.212	-30.119	4.351	C.2	1	SAM401	0.000	
23	  C6	-15.758	-31.072	3.455	C.2	1	SAM401	0.000	
24	  N6	-16.599	-31.762	2.685	N.pl3	1	SAM401	0.000	
25	  N7	-17.461	-29.662	4.664	N.2	1	SAM401	0.000	
26	  C8	-17.334	-28.712	5.641	C.2	1	SAM401	0.000	
27	  N9	-15.984	-28.559	5.917	N.2	1	SAM401	0.000	
@<TRIPOS>BOND
1 1 2 1
2 2 3 1
3 2 5 1
4 3 4 ar
5 3 17 ar
6 5 6 1
7 6 7 1
8 7 8 1
9 7 9 1
10 9 10 1
11 10 11 1
12 10 12 1
13 11 16 1
14 12 13 1
15 12 14 1
16 14 15 1
17 14 16 1
18 16 27 1
19 18 19 ar
20 18 23 ar
21 19 20 ar
22 20 21 ar
23 21 22 ar
24 21 27 ar
25 22 23 ar
26 22 25 ar
27 23 24 1
28 25 26 ar
29 26 27 ar
@<TRIPOS>SUBSTRUCTURE
1	SAM401	1	GROUP	1 A	SAM
