# created with PyMOL 2.4.0
@<TRIPOS>MOLECULE
temp
50 52 1                 
SMALL
USER_CHARGES
@<TRIPOS>ATOM
1	   N	-12.186	-28.294	13.090	N.4	1	SAM1	0.000	
2	  CA	-12.705	-26.956	12.934	C.3	1	SAM1	0.000	
3	   C	-12.505	-26.066	14.160	C.2	1	SAM1	0.000	
4	   O	-12.337	-26.537	15.305	O.co2	1	SAM1	0.000	
5	  CB	-14.196	-27.014	12.629	C.3	1	SAM1	0.000	
6	  CG	-14.672	-25.799	11.863	C.3	1	SAM1	0.000	
7	  SD	-16.420	-25.906	11.417	S.3	1	SAM1	0.000	
8	  CE	-17.260	-26.576	12.883	C.3	1	SAM1	0.000	
9	 C5'	-16.493	-27.226	10.176	C.3	1	SAM1	0.000	
10	 C4'	-15.393	-27.106	9.122	C.3	1	SAM1	0.000	
11	 O4'	-15.538	-28.176	8.209	O.3	1	SAM1	0.000	
12	 C3'	-15.479	-25.822	8.297	C.3	1	SAM1	0.000	
13	 O3'	-14.179	-25.243	8.186	O.3	1	SAM1	0.000	
14	 C2'	-15.958	-26.293	6.939	C.3	1	SAM1	0.000	
15	 O2'	-15.446	-25.571	5.856	O.3	1	SAM1	0.000	
16	 C1'	-15.350	-27.675	6.894	C.3	1	SAM1	0.000	
17	 OXT	-12.560	-24.835	14.001	O.co2	1	SAM1	0.000	
18	  N1	-14.408	-31.303	3.370	N.2	1	SAM1	0.000	
19	  C2	-13.505	-30.622	4.141	C.2	1	SAM1	0.000	
20	  N3	-13.947	-29.663	5.022	N.2	1	SAM1	0.000	
21	  C4	-15.283	-29.428	5.124	C.2	1	SAM1	0.000	
22	  C5	-16.212	-30.119	4.351	C.2	1	SAM1	0.000	
23	  C6	-15.758	-31.072	3.455	C.2	1	SAM1	0.000	
24	  N6	-16.599	-31.762	2.685	N.pl3	1	SAM1	0.000	
25	  N7	-17.461	-29.662	4.664	N.2	1	SAM1	0.000	
26	  C8	-17.334	-28.712	5.641	C.2	1	SAM1	0.000	
27	  N9	-15.984	-28.559	5.917	N.2	1	SAM1	0.000	
28	  HA	-12.140	-26.514	12.113	 H	1	SAM1	0.000	
29	 HB1	-14.744	-27.073	13.569	 H	1	SAM1	0.000	
30	 HB2	-14.398	-27.905	12.034	 H	1	SAM1	0.000	
31	 HG1	-14.083	-25.708	10.950	 H	1	SAM1	0.000	
32	 HG2	-14.522	-24.914	12.482	 H	1	SAM1	0.000	
33	 HE1	-17.254	-25.830	13.678	 H	1	SAM1	0.000	
34	 HE2	-16.740	-27.472	13.222	 H	1	SAM1	0.000	
35	 HE3	-18.289	-26.828	12.628	 H	1	SAM1	0.000	
36	  H1	-12.674	-28.759	13.842	 H	1	SAM1	0.000	
37	  H2	-11.200	-28.250	13.305	 H	1	SAM1	0.000	
38	  H2	-12.450	-30.837	4.058	 H	1	SAM1	0.000	
39	  H3	-12.321	-28.810	12.232	 H	1	SAM1	0.000	
40	  H8	-18.143	-28.176	6.114	 H	1	SAM1	0.000	
41	 H1'	-14.306	-27.629	6.584	 H	1	SAM1	0.000	
42	 H2'	-17.041	-26.205	6.847	 H	1	SAM1	0.000	
43	 H2'	-15.750	-24.664	5.942	 H	1	SAM1	0.000	
44	 H3'	-16.135	-25.070	8.735	 H	1	SAM1	0.000	
45	 H3'	-14.252	-24.471	7.620	 H	1	SAM1	0.000	
46	 H4'	-14.444	-27.111	9.658	 H	1	SAM1	0.000	
47	 H61	-17.593	-31.595	2.747	 H	1	SAM1	0.000	
48	 H62	-16.242	-32.452	2.039	 H	1	SAM1	0.000	
49	H5'1	-17.461	-27.182	9.677	 H	1	SAM1	0.000	
50	H5'2	-16.388	-28.186	10.682	 H	1	SAM1	0.000	
@<TRIPOS>BOND
1 1 2 1
2 1 36 1
3 1 37 1
4 1 39 1
5 2 3 1
6 2 5 1
7 2 28 1
8 3 4 ar
9 3 17 ar
10 5 6 1
11 5 29 1
12 5 30 1
13 6 7 1
14 6 31 1
15 6 32 1
16 7 8 1
17 7 9 1
18 8 33 1
19 8 34 1
20 8 35 1
21 9 10 1
22 9 49 1
23 9 50 1
24 10 11 1
25 10 12 1
26 10 46 1
27 11 16 1
28 12 13 1
29 12 14 1
30 12 44 1
31 13 45 1
32 14 15 1
33 14 16 1
34 14 42 1
35 15 43 1
36 16 27 1
37 16 41 1
38 18 19 ar
39 18 23 ar
40 19 20 ar
41 19 38 1
42 20 21 ar
43 21 22 ar
44 21 27 ar
45 22 23 ar
46 22 25 ar
47 23 24 1
48 24 47 1
49 24 48 1
50 25 26 ar
51 26 27 ar
52 26 40 1
@<TRIPOS>SUBSTRUCTURE
1	SAM1	1	GROUP	1 A	SAM
