# created with PyMOL 2.5.0
@<TRIPOS>MOLECULE
4IV8
27 29 1                 
SMALL
USER_CHARGES
@<TRIPOS>ATOM
1	   N	-20.884	-75.043	8.902	N.3	1	SAM301	0.000	
2	  CA	-21.860	-75.566	7.954	C.3	1	SAM301	0.000	
3	   C	-22.222	-76.974	8.348	C.2	1	SAM301	0.000	
4	   O	-22.076	-77.896	7.522	O.co2	1	SAM301	0.000	
5	  CB	-21.294	-75.520	6.531	C.3	1	SAM301	0.000	
6	  CG	-22.257	-76.164	5.529	C.3	1	SAM301	0.000	
7	  SD	-22.596	-75.166	4.240	S.3	1	SAM301	0.000	
8	  CE	-24.049	-75.626	3.563	C.3	1	SAM301	0.000	
9	 C5'	-21.404	-75.319	3.075	C.3	1	SAM301	0.000	
10	 C4'	-20.352	-74.232	3.293	C.3	1	SAM301	0.000	
11	 O4'	-19.250	-74.415	2.405	O.3	1	SAM301	0.000	
12	 C3'	-20.904	-72.832	3.032	C.3	1	SAM301	0.000	
13	 O3'	-20.702	-72.005	4.188	O.3	1	SAM301	0.000	
14	 C2'	-20.083	-72.312	1.877	C.3	1	SAM301	0.000	
15	 O2'	-19.838	-70.913	2.017	O.3	1	SAM301	0.000	
16	 C1'	-18.806	-73.131	1.992	C.3	1	SAM301	0.000	
17	 OXT	-22.661	-77.182	9.500	O.co2	1	SAM301	0.000	
18	  N1	-14.148	-73.114	-0.298	N.2	1	SAM301	0.000	
19	  C2	-14.470	-72.999	1.004	C.2	1	SAM301	0.000	
20	  N3	-15.739	-73.023	1.457	N.2	1	SAM301	0.000	
21	  C4	-16.771	-73.176	0.581	C.2	1	SAM301	0.000	
22	  C5	-16.493	-73.333	-0.851	C.2	1	SAM301	0.000	
23	  C6	-15.079	-73.288	-1.265	C.2	1	SAM301	0.000	
24	  N6	-14.748	-73.427	-2.577	N.pl3	1	SAM301	0.000	
25	  N7	-17.683	-73.479	-1.481	N.2	1	SAM301	0.000	
26	  C8	-18.641	-73.417	-0.516	C.2	1	SAM301	0.000	
27	  N9	-18.092	-73.235	0.702	N.2	1	SAM301	0.000	
@<TRIPOS>BOND
1 1 2 1
2 2 3 1
3 2 5 1
4 3 4 ar
5 3 17 ar
6 5 6 1
7 6 7 1
8 7 8 1
9 7 9 1
10 9 10 1
11 10 11 1
12 10 12 1
13 11 16 1
14 12 13 1
15 12 14 1
16 14 15 1
17 14 16 1
18 16 27 1
19 18 19 ar
20 18 23 ar
21 19 20 ar
22 20 21 ar
23 21 22 ar
24 21 27 ar
25 22 23 ar
26 22 25 ar
27 23 24 1
28 25 26 ar
29 26 27 ar
@<TRIPOS>SUBSTRUCTURE
1	SAM301	1	GROUP	1 B	SAM
