@<TRIPOS>MOLECULE
4IV8.B
51 53 1 0 0 
SMALL
USER_CHARGES


@<TRIPOS>ATOM
  1 N      -20.8840   -75.0430     8.9020 N.4   1 SAM  -0.8530 
  2 H1     -20.0528   -75.6164     8.8802 H     1 SAM   0.4500 
  3 H2     -21.2776   -75.0559     9.8320 H     1 SAM   0.4500 
  4 H3     -20.6453   -74.0944     8.6506 H     1 SAM   0.4500 
  5 CA     -21.8600   -75.5660     7.9540 C.3   1 SAM   0.3170 
  6 HA     -22.7597   -74.9510     7.9730 H     1 SAM   0.0800 
  7 C      -22.2220   -76.9740     8.3480 C.2   1 SAM   0.9060 
  8 O      -22.0760   -77.8960     7.5220 O.co2 1 SAM  -0.9000 
  9 CB     -21.2940   -75.5200     6.5310 C.3   1 SAM  -0.1600 
 10 HB1    -20.3459   -76.0574     6.5082 H     1 SAM   0.0800 
 11 HB2    -21.1293   -74.4804     6.2476 H     1 SAM   0.0800 
 12 CG     -22.2570   -76.1640     5.5290 C.3   1 SAM  -0.1525 
 13 HG1    -23.1889   -76.4010     6.0423 H     1 SAM   0.0800 
 14 HG2    -21.8066   -77.0820     5.1515 H     1 SAM   0.0800 
 15 SD     -22.5960   -75.1660     4.2400 S.3   1 SAM   0.9775 
 16 CE     -24.0490   -75.6260     3.5630 C.3   1 SAM  -0.2325 
 17 HE1    -24.8413   -75.5340     4.3059 H     1 SAM   0.0800 
 18 HE2    -23.9826   -76.6614     3.2290 H     1 SAM   0.0800 
 19 HE3    -24.2728   -74.9832     2.7116 H     1 SAM   0.0800 
 20 C5'    -21.4040   -75.3190     3.0750 C.3   1 SAM  -0.1525 
 21 H5'1   -21.8448   -75.2074     2.0844 H     1 SAM   0.0800 
 22 H5'2   -20.9373   -76.3007     3.1565 H     1 SAM   0.0800 
 23 C4'    -20.3520   -74.2320     3.2930 C.3   1 SAM   0.2000 
 24 H4'    -20.0431   -74.3179     4.3348 H     1 SAM   0.0800 
 25 O4'    -19.2500   -74.4150     2.4050 O.3   1 SAM  -0.5600 
 26 C3'    -20.9040   -72.8320     3.0320 C.3   1 SAM   0.2000 
 27 H3'    -21.9725   -72.8360     2.8165 H     1 SAM   0.0800 
 28 O3'    -20.7020   -72.0050     4.1880 O.3   1 SAM  -0.6800 
 29 H3'    -21.0189   -71.1245     3.9739 H     1 SAM   0.4000 
 30 C2'    -20.0830   -72.3120     1.8770 C.3   1 SAM   0.2000 
 31 H2'    -20.5665   -72.4129     0.9053 H     1 SAM   0.0800 
 32 O2'    -19.8380   -70.9130     2.0170 O.3   1 SAM  -0.6800 
 33 H2'    -19.4098   -70.7768     2.8653 H     1 SAM   0.4000 
 34 C1'    -18.8060   -73.1310     1.9920 C.3   1 SAM   0.5691 
 35 H1'    -18.1011   -72.6713     2.6848 H     1 SAM   0.0800 
 36 OXT    -22.6610   -77.1820     9.5000 O.co2 1 SAM  -0.9000 
 37 N1     -14.1480   -73.1140    -0.2980 N.2   1 SAM  -0.6610 
 38 C2     -14.4700   -72.9990     1.0040 C.2   1 SAM   0.6010 
 39 H2     -13.6714   -72.8816     1.7215 H     1 SAM   0.0600 
 40 N3     -15.7390   -73.0230     1.4570 N.2   1 SAM  -0.6610 
 41 C4     -16.7710   -73.1760     0.5810 C.2   1 SAM   0.5000 
 42 C5     -16.4930   -73.3330    -0.8510 C.2   1 SAM   0.4500 
 43 C6     -15.0790   -73.2880    -1.2650 C.2   1 SAM   0.6110 
 44 N6     -14.7480   -73.4270    -2.5770 N.2   1 SAM  -0.2000 
 45 H62    -13.7788   -73.3960    -2.8593 H     1 SAM   0.4000 
 46 H61    -15.4715   -73.5612    -3.2689 H     1 SAM   0.4000 
 47 N7     -17.6830   -73.4790    -1.4810 N.2   1 SAM  -0.6960 
 48 C8     -18.6410   -73.4170    -0.5160 C.3   1 SAM   0.4551 
 49 H81    -19.2069   -74.3486    -0.5158 H     1 SAM   0.0800 
 50 H82    -19.3110   -72.5849    -0.7324 H     1 SAM   0.0800 
 51 N9     -18.0920   -73.2350     0.7020 N.pl3 1 SAM  -0.7882 
@<TRIPOS>BOND
  1   1   2  1   
  2   1   3  1   
  3   1   4  1   
  4   1   5  1   
  5   5   6  1   
  6   5   7  1   
  7   5   9  1   
  8   7   8  ar  
  9   7  36  ar  
 10   9  10  1   
 11   9  11  1   
 12   9  12  1   
 13  12  13  1   
 14  12  14  1   
 15  12  15  1   
 16  15  16  1   
 17  15  20  1   
 18  16  17  1   
 19  16  18  1   
 20  16  19  1   
 21  20  21  1   
 22  20  22  1   
 23  20  23  1   
 24  23  24  1   
 25  23  25  1   
 26  23  26  1   
 27  25  34  1   
 28  26  27  1   
 29  26  28  1   
 30  26  30  1   
 31  28  29  1   
 32  30  31  1   
 33  30  32  1   
 34  30  34  1   
 35  32  33  1   
 36  34  35  1   
 37  34  51  1   
 38  37  38  2   
 39  37  43  1   
 40  38  39  1   
 41  38  40  1   
 42  40  41  2   
 43  41  42  1   
 44  41  51  1   
 45  42  43  1   
 46  42  47  2   
 47  43  44  2   
 48  44  45  1   
 49  44  46  1   
 50  47  48  1   
 51  48  49  1   
 52  48  50  1   
 53  48  51  1   
@<TRIPOS>SUBSTRUCTURE
  1 SAM  25 GROUP 4 B **** 0

# MOE 2022.02 (io_trps.svl 2020.11)
