@<TRIPOS>MOLECULE
4IV8.A
51 53 1 0 0 
SMALL
USER_CHARGES


@<TRIPOS>ATOM
  1 N      -20.0960   -41.7510    12.1610 N.4   1 SAM  -0.8530 
  2 H1     -20.6039   -41.1368    12.7815 H     1 SAM   0.4500 
  3 H2     -19.7916   -41.2329    11.3492 H     1 SAM   0.4500 
  4 H3     -19.2911   -42.1256    12.6426 H     1 SAM   0.4500 
  5 CA     -20.9620   -42.8420    11.7430 C.3   1 SAM   0.3170 
  6 HA     -20.4041   -43.4977    11.0745 H     1 SAM   0.0800 
  7 C      -22.1690   -42.2950    11.0460 C.2   1 SAM   0.9060 
  8 O      -22.9460   -43.1200    10.5240 O.co2 1 SAM  -0.9000 
  9 CB     -21.4410   -43.5980    12.9710 C.3   1 SAM  -0.1600 
 10 HB1    -20.5875   -43.8424    13.6034 H     1 SAM   0.0800 
 11 HB2    -21.9385   -44.5170    12.6611 H     1 SAM   0.0800 
 12 CG     -22.4190   -42.7290    13.7510 C.3   1 SAM  -0.1525 
 13 HG1    -23.3246   -42.5781    13.1634 H     1 SAM   0.0800 
 14 HG2    -21.9606   -41.7638    13.9664 H     1 SAM   0.0800 
 15 SD     -22.7960   -43.4940    15.1670 S.3   1 SAM   0.9775 
 16 CE     -24.1790   -42.8490    15.8390 C.3   1 SAM  -0.2325 
 17 HE1    -25.0158   -42.9918    15.1553 H     1 SAM   0.0800 
 18 HE2    -24.0334   -41.7836    16.0176 H     1 SAM   0.0800 
 19 HE3    -24.3918   -43.3499    16.7834 H     1 SAM   0.0800 
 20 C5'    -21.5760   -43.2260    16.2860 C.3   1 SAM  -0.1525 
 21 H5'1   -21.9678   -43.3420    17.2965 H     1 SAM   0.0800 
 22 H5'2   -21.1763   -42.2192    16.1646 H     1 SAM   0.0800 
 23 C4'    -20.4810   -44.2510    16.0350 C.3   1 SAM   0.2000 
 24 H4'    -20.1823   -44.1252    14.9943 H     1 SAM   0.0800 
 25 O4'    -19.3500   -44.0510    16.8940 O.3   1 SAM  -0.5600 
 26 C3'    -20.9950   -45.6660    16.2940 C.3   1 SAM   0.2000 
 27 H3'    -22.0461   -45.7121    16.5788 H     1 SAM   0.0800 
 28 O3'    -20.8480   -46.4340    15.0940 O.3   1 SAM  -0.6800 
 29 H3'    -21.1199   -47.3336    15.2900 H     1 SAM   0.4000 
 30 C2'    -20.0940   -46.1900    17.4000 C.3   1 SAM   0.2000 
 31 H2'    -20.5285   -46.1187    18.3971 H     1 SAM   0.0800 
 32 O2'    -19.8320   -47.5870    17.2380 O.3   1 SAM  -0.6800 
 33 H2'    -19.2227   -47.8504    17.9315 H     1 SAM   0.4000 
 34 C1'    -18.8470   -45.3310    17.2490 C.3   1 SAM   0.5691 
 35 H1'    -18.1668   -45.7703    16.5194 H     1 SAM   0.0800 
 36 OXT    -22.3600   -41.0530    11.0270 O.co2 1 SAM  -0.9000 
 37 N1     -14.0820   -45.3700    19.3940 N.2   1 SAM  -0.6610 
 38 C2     -14.4440   -45.5250    18.1030 C.2   1 SAM   0.6010 
 39 H2     -13.6710   -45.6856    17.3660 H     1 SAM   0.0600 
 40 N3     -15.7360   -45.4880    17.6900 N.2   1 SAM  -0.6610 
 41 C4     -16.7430   -45.2860    18.5810 C.2   1 SAM   0.5000 
 42 C5     -16.4190   -45.0950    19.9980 C.2   1 SAM   0.4500 
 43 C6     -14.9940   -45.1610    20.3760 C.2   1 SAM   0.6110 
 44 N6     -14.6370   -44.9940    21.6770 N.2   1 SAM  -0.2000 
 45 H62    -13.6637   -45.0379    21.9432 H     1 SAM   0.4000 
 46 H61    -15.3451   -44.8261    22.3774 H     1 SAM   0.4000 
 47 N7     -17.5880   -44.9100    20.6640 N.2   1 SAM  -0.6960 
 48 C8     -18.5790   -44.9730    19.7350 C.3   1 SAM   0.4551 
 49 H81    -19.1185   -44.0260    19.7239 H     1 SAM   0.0800 
 50 H82    -19.2644   -45.7786    19.9984 H     1 SAM   0.0800 
 51 N9     -18.0720   -45.2080    18.5040 N.pl3 1 SAM  -0.7882 
@<TRIPOS>BOND
  1   1   2  1   
  2   1   3  1   
  3   1   4  1   
  4   1   5  1   
  5   5   6  1   
  6   5   7  1   
  7   5   9  1   
  8   7   8  ar  
  9   7  36  ar  
 10   9  10  1   
 11   9  11  1   
 12   9  12  1   
 13  12  13  1   
 14  12  14  1   
 15  12  15  1   
 16  15  16  1   
 17  15  20  1   
 18  16  17  1   
 19  16  18  1   
 20  16  19  1   
 21  20  21  1   
 22  20  22  1   
 23  20  23  1   
 24  23  24  1   
 25  23  25  1   
 26  23  26  1   
 27  25  34  1   
 28  26  27  1   
 29  26  28  1   
 30  26  30  1   
 31  28  29  1   
 32  30  31  1   
 33  30  32  1   
 34  30  34  1   
 35  32  33  1   
 36  34  35  1   
 37  34  51  1   
 38  37  38  2   
 39  37  43  1   
 40  38  39  1   
 41  38  40  1   
 42  40  41  2   
 43  41  42  1   
 44  41  51  1   
 45  42  43  1   
 46  42  47  2   
 47  43  44  2   
 48  44  45  1   
 49  44  46  1   
 50  47  48  1   
 51  48  49  1   
 52  48  50  1   
 53  48  51  1   
@<TRIPOS>SUBSTRUCTURE
  1 SAM  25 GROUP 4 A **** 0

# MOE 2022.02 (io_trps.svl 2020.11)
