# created with PyMOL 2.5.0
@<TRIPOS>MOLECULE
4IV8
27 29 1                 
SMALL
USER_CHARGES
@<TRIPOS>ATOM
1	   N	-20.096	-41.751	12.161	N.3	1	SAM301	0.000	
2	  CA	-20.962	-42.842	11.743	C.3	1	SAM301	0.000	
3	   C	-22.169	-42.295	11.046	C.2	1	SAM301	0.000	
4	   O	-22.946	-43.120	10.524	O.co2	1	SAM301	0.000	
5	  CB	-21.441	-43.598	12.971	C.3	1	SAM301	0.000	
6	  CG	-22.419	-42.729	13.751	C.3	1	SAM301	0.000	
7	  SD	-22.796	-43.494	15.167	S.3	1	SAM301	0.000	
8	  CE	-24.179	-42.849	15.839	C.3	1	SAM301	0.000	
9	 C5'	-21.576	-43.226	16.286	C.3	1	SAM301	0.000	
10	 C4'	-20.481	-44.251	16.035	C.3	1	SAM301	0.000	
11	 O4'	-19.350	-44.051	16.894	O.3	1	SAM301	0.000	
12	 C3'	-20.995	-45.666	16.294	C.3	1	SAM301	0.000	
13	 O3'	-20.848	-46.434	15.094	O.3	1	SAM301	0.000	
14	 C2'	-20.094	-46.190	17.400	C.3	1	SAM301	0.000	
15	 O2'	-19.832	-47.587	17.238	O.3	1	SAM301	0.000	
16	 C1'	-18.847	-45.331	17.249	C.3	1	SAM301	0.000	
17	 OXT	-22.360	-41.053	11.027	O.co2	1	SAM301	0.000	
18	  N1	-14.082	-45.370	19.394	N.2	1	SAM301	0.000	
19	  C2	-14.444	-45.525	18.103	C.2	1	SAM301	0.000	
20	  N3	-15.736	-45.488	17.690	N.2	1	SAM301	0.000	
21	  C4	-16.743	-45.286	18.581	C.2	1	SAM301	0.000	
22	  C5	-16.419	-45.095	19.998	C.2	1	SAM301	0.000	
23	  C6	-14.994	-45.161	20.376	C.2	1	SAM301	0.000	
24	  N6	-14.637	-44.994	21.677	N.pl3	1	SAM301	0.000	
25	  N7	-17.588	-44.910	20.664	N.2	1	SAM301	0.000	
26	  C8	-18.579	-44.973	19.735	C.2	1	SAM301	0.000	
27	  N9	-18.072	-45.208	18.504	N.2	1	SAM301	0.000	
@<TRIPOS>BOND
1 1 2 1
2 2 3 1
3 2 5 1
4 3 4 ar
5 3 17 ar
6 5 6 1
7 6 7 1
8 7 8 1
9 7 9 1
10 9 10 1
11 10 11 1
12 10 12 1
13 11 16 1
14 12 13 1
15 12 14 1
16 14 15 1
17 14 16 1
18 16 27 1
19 18 19 ar
20 18 23 ar
21 19 20 ar
22 20 21 ar
23 21 22 ar
24 21 27 ar
25 22 23 ar
26 22 25 ar
27 23 24 1
28 25 26 ar
29 26 27 ar
@<TRIPOS>SUBSTRUCTURE
1	SAM301	1	GROUP	1 A	SAM
