# created with PyMOL 2.4.0
@<TRIPOS>MOLECULE
temp
50 52 1                 
SMALL
USER_CHARGES
@<TRIPOS>ATOM
1	   N	-20.884	-75.043	8.902	N.4	1	SAM1	0.000	
2	  CA	-21.860	-75.566	7.954	C.3	1	SAM1	0.000	
3	   C	-22.222	-76.974	8.348	C.2	1	SAM1	0.000	
4	   O	-22.076	-77.896	7.522	O.co2	1	SAM1	0.000	
5	  CB	-21.294	-75.520	6.531	C.3	1	SAM1	0.000	
6	  CG	-22.257	-76.164	5.529	C.3	1	SAM1	0.000	
7	  SD	-22.596	-75.166	4.240	S.3	1	SAM1	0.000	
8	  CE	-24.049	-75.626	3.563	C.3	1	SAM1	0.000	
9	 C5'	-21.404	-75.319	3.075	C.3	1	SAM1	0.000	
10	 C4'	-20.352	-74.232	3.293	C.3	1	SAM1	0.000	
11	 O4'	-19.250	-74.415	2.405	O.3	1	SAM1	0.000	
12	 C3'	-20.904	-72.832	3.032	C.3	1	SAM1	0.000	
13	 O3'	-20.702	-72.005	4.188	O.3	1	SAM1	0.000	
14	 C2'	-20.083	-72.312	1.877	C.3	1	SAM1	0.000	
15	 O2'	-19.838	-70.913	2.017	O.3	1	SAM1	0.000	
16	 C1'	-18.806	-73.131	1.992	C.3	1	SAM1	0.000	
17	 OXT	-22.661	-77.182	9.500	O.co2	1	SAM1	0.000	
18	  N1	-14.148	-73.114	-0.298	N.2	1	SAM1	0.000	
19	  C2	-14.470	-72.999	1.004	C.2	1	SAM1	0.000	
20	  N3	-15.739	-73.023	1.457	N.2	1	SAM1	0.000	
21	  C4	-16.771	-73.176	0.581	C.2	1	SAM1	0.000	
22	  C5	-16.493	-73.333	-0.851	C.2	1	SAM1	0.000	
23	  C6	-15.079	-73.288	-1.265	C.2	1	SAM1	0.000	
24	  N6	-14.748	-73.427	-2.577	N.pl3	1	SAM1	0.000	
25	  N7	-17.683	-73.479	-1.481	N.2	1	SAM1	0.000	
26	  C8	-18.641	-73.417	-0.516	C.2	1	SAM1	0.000	
27	  N9	-18.092	-73.235	0.702	N.2	1	SAM1	0.000	
28	  HA	-22.760	-74.951	7.973	 H	1	SAM1	0.000	
29	 HB1	-20.346	-76.057	6.508	 H	1	SAM1	0.000	
30	 HB2	-21.129	-74.480	6.248	 H	1	SAM1	0.000	
31	 HG1	-23.189	-76.401	6.042	 H	1	SAM1	0.000	
32	 HG2	-21.807	-77.082	5.152	 H	1	SAM1	0.000	
33	 HE1	-24.841	-75.534	4.306	 H	1	SAM1	0.000	
34	 HE2	-23.983	-76.661	3.229	 H	1	SAM1	0.000	
35	 HE3	-24.273	-74.983	2.712	 H	1	SAM1	0.000	
36	  H1	-20.053	-75.616	8.880	 H	1	SAM1	0.000	
37	  H2	-21.278	-75.056	9.832	 H	1	SAM1	0.000	
38	  H2	-13.671	-72.882	1.722	 H	1	SAM1	0.000	
39	  H3	-20.645	-74.094	8.651	 H	1	SAM1	0.000	
40	  H8	-19.702	-73.502	-0.702	 H	1	SAM1	0.000	
41	 H1'	-18.101	-72.671	2.685	 H	1	SAM1	0.000	
42	 H2'	-20.566	-72.413	0.905	 H	1	SAM1	0.000	
43	 H2'	-19.410	-70.777	2.865	 H	1	SAM1	0.000	
44	 H3'	-21.972	-72.836	2.816	 H	1	SAM1	0.000	
45	 H3'	-21.019	-71.124	3.974	 H	1	SAM1	0.000	
46	 H4'	-20.043	-74.318	4.335	 H	1	SAM1	0.000	
47	 H61	-15.472	-73.561	-3.269	 H	1	SAM1	0.000	
48	 H62	-13.779	-73.396	-2.859	 H	1	SAM1	0.000	
49	H5'1	-21.845	-75.207	2.084	 H	1	SAM1	0.000	
50	H5'2	-20.937	-76.301	3.157	 H	1	SAM1	0.000	
@<TRIPOS>BOND
1 1 2 1
2 1 36 1
3 1 37 1
4 1 39 1
5 2 3 1
6 2 5 1
7 2 28 1
8 3 4 ar
9 3 17 ar
10 5 6 1
11 5 29 1
12 5 30 1
13 6 7 1
14 6 31 1
15 6 32 1
16 7 8 1
17 7 9 1
18 8 33 1
19 8 34 1
20 8 35 1
21 9 10 1
22 9 49 1
23 9 50 1
24 10 11 1
25 10 12 1
26 10 46 1
27 11 16 1
28 12 13 1
29 12 14 1
30 12 44 1
31 13 45 1
32 14 15 1
33 14 16 1
34 14 42 1
35 15 43 1
36 16 27 1
37 16 41 1
38 18 19 ar
39 18 23 ar
40 19 20 ar
41 19 38 1
42 20 21 ar
43 21 22 ar
44 21 27 ar
45 22 23 ar
46 22 25 ar
47 23 24 1
48 24 47 1
49 24 48 1
50 25 26 ar
51 26 27 ar
52 26 40 1
@<TRIPOS>SUBSTRUCTURE
1	SAM1	1	GROUP	1 B	SAM
