# created with PyMOL 2.4.0
@<TRIPOS>MOLECULE
temp
50 52 1                 
SMALL
USER_CHARGES
@<TRIPOS>ATOM
1	   N	23.739	10.571	13.618	N.4	1	SAM1	0.000	
2	  CA	22.897	10.773	14.841	C.3	1	SAM1	0.000	
3	   C	23.622	11.593	15.905	C.2	1	SAM1	0.000	
4	   O	23.079	11.835	16.997	O.co2	1	SAM1	0.000	
5	  CB	22.431	9.433	15.419	C.3	1	SAM1	0.000	
6	  CG	21.230	8.863	14.665	C.3	1	SAM1	0.000	
7	  SD	19.736	9.876	14.855	S.3	1	SAM1	0.000	
8	  CE	18.545	8.608	15.380	C.3	1	SAM1	0.000	
9	 C5'	19.119	10.163	13.189	C.3	1	SAM1	0.000	
10	 C4'	19.992	11.159	12.410	C.3	1	SAM1	0.000	
11	 O4'	21.279	10.633	12.107	O.3	1	SAM1	0.000	
12	 C3'	19.398	11.495	11.068	C.3	1	SAM1	0.000	
13	 O3'	18.464	12.531	11.182	O.3	1	SAM1	0.000	
14	 C2'	20.607	11.922	10.252	C.3	1	SAM1	0.000	
15	 O2'	20.941	13.277	10.521	O.3	1	SAM1	0.000	
16	 C1'	21.694	11.038	10.809	C.3	1	SAM1	0.000	
17	 OXT	24.760	12.036	15.696	O.co2	1	SAM1	0.000	
18	  N1	23.533	9.054	6.264	N.2	1	SAM1	0.000	
19	  C2	23.531	10.381	6.662	C.2	1	SAM1	0.000	
20	  N3	23.009	10.734	7.898	N.2	1	SAM1	0.000	
21	  C4	22.487	9.779	8.723	C.2	1	SAM1	0.000	
22	  C5	22.477	8.440	8.331	C.2	1	SAM1	0.000	
23	  C6	23.008	8.076	7.091	C.2	1	SAM1	0.000	
24	  N6	22.995	6.797	6.712	N.pl3	1	SAM1	0.000	
25	  N7	21.898	7.716	9.319	N.2	1	SAM1	0.000	
26	  C8	21.549	8.549	10.325	C.2	1	SAM1	0.000	
27	  N9	21.895	9.834	9.973	N.2	1	SAM1	0.000	
28	  HA	22.019	11.339	14.531	 H	1	SAM1	0.000	
29	 HB1	22.153	9.579	16.463	 H	1	SAM1	0.000	
30	 HB2	23.253	8.720	15.359	 H	1	SAM1	0.000	
31	 HG1	21.023	7.862	15.045	 H	1	SAM1	0.000	
32	 HG2	21.479	8.805	13.606	 H	1	SAM1	0.000	
33	 HE1	18.768	8.300	16.402	 H	1	SAM1	0.000	
34	 HE2	18.616	7.746	14.717	 H	1	SAM1	0.000	
35	 HE3	17.536	9.017	15.336	 H	1	SAM1	0.000	
36	  H1	24.567	10.048	13.862	 H	1	SAM1	0.000	
37	  H2	24.007	11.469	13.242	 H	1	SAM1	0.000	
38	  H2	23.936	11.141	6.010	 H	1	SAM1	0.000	
39	  H3	23.210	10.060	12.926	 H	1	SAM1	0.000	
40	  H8	21.077	8.255	11.251	 H	1	SAM1	0.000	
41	 H1'	22.635	11.588	10.832	 H	1	SAM1	0.000	
42	 H2'	20.449	11.837	9.177	 H	1	SAM1	0.000	
43	 H2'	20.205	13.821	10.229	 H	1	SAM1	0.000	
44	 H3'	18.855	10.666	10.615	 H	1	SAM1	0.000	
45	 H3'	18.152	12.739	10.298	 H	1	SAM1	0.000	
46	 H4'	20.056	12.029	13.064	 H	1	SAM1	0.000	
47	 H61	22.602	6.094	7.321	 H	1	SAM1	0.000	
48	 H62	23.378	6.532	5.816	 H	1	SAM1	0.000	
49	H5'1	18.106	10.560	13.253	 H	1	SAM1	0.000	
50	H5'2	19.104	9.215	12.652	 H	1	SAM1	0.000	
@<TRIPOS>BOND
1 1 2 1
2 1 36 1
3 1 37 1
4 1 39 1
5 2 3 1
6 2 5 1
7 2 28 1
8 3 4 ar
9 3 17 ar
10 5 6 1
11 5 29 1
12 5 30 1
13 6 7 1
14 6 31 1
15 6 32 1
16 7 8 1
17 7 9 1
18 8 33 1
19 8 34 1
20 8 35 1
21 9 10 1
22 9 49 1
23 9 50 1
24 10 11 1
25 10 12 1
26 10 46 1
27 11 16 1
28 12 13 1
29 12 14 1
30 12 44 1
31 13 45 1
32 14 15 1
33 14 16 1
34 14 42 1
35 15 43 1
36 16 27 1
37 16 41 1
38 18 19 ar
39 18 23 ar
40 19 20 ar
41 19 38 1
42 20 21 ar
43 21 22 ar
44 21 27 ar
45 22 23 ar
46 22 25 ar
47 23 24 1
48 24 47 1
49 24 48 1
50 25 26 ar
51 26 27 ar
52 26 40 1
@<TRIPOS>SUBSTRUCTURE
1	SAM1	1	GROUP	1 A	SAM
