# created with PyMOL 2.5.0
@<TRIPOS>MOLECULE
3TG4
27 29 1                 
SMALL
USER_CHARGES
@<TRIPOS>ATOM
1	   N	23.739	10.571	13.618	N.3	1	SAM434	0.000	
2	  CA	22.897	10.773	14.841	C.3	1	SAM434	0.000	
3	   C	23.622	11.593	15.905	C.2	1	SAM434	0.000	
4	   O	23.079	11.835	16.997	O.co2	1	SAM434	0.000	
5	  CB	22.431	9.433	15.419	C.3	1	SAM434	0.000	
6	  CG	21.230	8.863	14.665	C.3	1	SAM434	0.000	
7	  SD	19.736	9.876	14.855	S.3	1	SAM434	0.000	
8	  CE	18.545	8.608	15.380	C.3	1	SAM434	0.000	
9	 C5'	19.119	10.163	13.189	C.3	1	SAM434	0.000	
10	 C4'	19.992	11.159	12.410	C.3	1	SAM434	0.000	
11	 O4'	21.279	10.633	12.107	O.3	1	SAM434	0.000	
12	 C3'	19.398	11.495	11.068	C.3	1	SAM434	0.000	
13	 O3'	18.464	12.531	11.182	O.3	1	SAM434	0.000	
14	 C2'	20.607	11.922	10.252	C.3	1	SAM434	0.000	
15	 O2'	20.941	13.277	10.521	O.3	1	SAM434	0.000	
16	 C1'	21.694	11.038	10.809	C.3	1	SAM434	0.000	
17	 OXT	24.760	12.036	15.696	O.co2	1	SAM434	0.000	
18	  N1	23.533	9.054	6.264	N.2	1	SAM434	0.000	
19	  C2	23.531	10.381	6.662	C.2	1	SAM434	0.000	
20	  N3	23.009	10.734	7.898	N.2	1	SAM434	0.000	
21	  C4	22.487	9.779	8.723	C.2	1	SAM434	0.000	
22	  C5	22.477	8.440	8.331	C.2	1	SAM434	0.000	
23	  C6	23.008	8.076	7.091	C.2	1	SAM434	0.000	
24	  N6	22.995	6.797	6.712	N.pl3	1	SAM434	0.000	
25	  N7	21.898	7.716	9.319	N.2	1	SAM434	0.000	
26	  C8	21.549	8.549	10.325	C.2	1	SAM434	0.000	
27	  N9	21.895	9.834	9.973	N.2	1	SAM434	0.000	
@<TRIPOS>BOND
1 1 2 1
2 2 3 1
3 2 5 1
4 3 4 ar
5 3 17 ar
6 5 6 1
7 6 7 1
8 7 8 1
9 7 9 1
10 9 10 1
11 10 11 1
12 10 12 1
13 11 16 1
14 12 13 1
15 12 14 1
16 14 15 1
17 14 16 1
18 16 27 1
19 18 19 ar
20 18 23 ar
21 19 20 ar
22 20 21 ar
23 21 22 ar
24 21 27 ar
25 22 23 ar
26 22 25 ar
27 23 24 1
28 25 26 ar
29 26 27 ar
@<TRIPOS>SUBSTRUCTURE
1	SAM434	1	GROUP	1 A	SAM
