@<TRIPOS>MOLECULE
3TG4.A
51 53 1 0 0 
SMALL
USER_CHARGES


@<TRIPOS>ATOM
  1 N       23.7390    10.5710    13.6180 N.4   1 SAM  -0.8530 
  2 H1      24.5675    10.0476    13.8624 H     1 SAM   0.4500 
  3 H2      24.0070    11.4691    13.2417 H     1 SAM   0.4500 
  4 H3      23.2100    10.0602    12.9257 H     1 SAM   0.4500 
  5 CA      22.8970    10.7730    14.8410 C.3   1 SAM   0.3170 
  6 HA      22.0186    11.3393    14.5315 H     1 SAM   0.0800 
  7 C       23.6220    11.5930    15.9050 C.2   1 SAM   0.9060 
  8 O       23.0790    11.8350    16.9970 O.co2 1 SAM  -0.9000 
  9 CB      22.4310     9.4330    15.4190 C.3   1 SAM  -0.1600 
 10 HB1     22.1526     9.5791    16.4627 H     1 SAM   0.0800 
 11 HB2     23.2534     8.7201    15.3587 H     1 SAM   0.0800 
 12 CG      21.2300     8.8630    14.6650 C.3   1 SAM  -0.1525 
 13 HG1     21.0231     7.8624    15.0447 H     1 SAM   0.0800 
 14 HG2     21.4793     8.8051    13.6055 H     1 SAM   0.0800 
 15 SD      19.7360     9.8760    14.8550 S.3   1 SAM   0.9775 
 16 CE      18.5450     8.6080    15.3800 C.3   1 SAM  -0.2325 
 17 HE1     18.7685     8.3004    16.4015 H     1 SAM   0.0800 
 18 HE2     18.6164     7.7457    14.7170 H     1 SAM   0.0800 
 19 HE3     17.5357     9.0172    15.3363 H     1 SAM   0.0800 
 20 C5'     19.1190    10.1630    13.1890 C.3   1 SAM  -0.1525 
 21 H5'1    18.1059    10.5599    13.2535 H     1 SAM   0.0800 
 22 H5'2    19.1041     9.2146    12.6520 H     1 SAM   0.0800 
 23 C4'     19.9920    11.1590    12.4100 C.3   1 SAM   0.2000 
 24 H4'     20.0558    12.0288    13.0638 H     1 SAM   0.0800 
 25 O4'     21.2790    10.6330    12.1070 O.3   1 SAM  -0.5600 
 26 C3'     19.3980    11.4950    11.0680 C.3   1 SAM   0.2000 
 27 H3'     18.8548    10.6656    10.6150 H     1 SAM   0.0800 
 28 O3'     18.4640    12.5310    11.1820 O.3   1 SAM  -0.6800 
 29 H3'     18.1520    12.7391    10.2983 H     1 SAM   0.4000 
 30 C2'     20.6070    11.9220    10.2520 C.3   1 SAM   0.2000 
 31 H2'     20.4495    11.8375     9.1768 H     1 SAM   0.0800 
 32 O2'     20.9410    13.2770    10.5210 O.3   1 SAM  -0.6800 
 33 H2'     20.2054    13.8207    10.2295 H     1 SAM   0.4000 
 34 C1'     21.6940    11.0380    10.8090 C.3   1 SAM   0.5691 
 35 H1'     22.6349    11.5877    10.8320 H     1 SAM   0.0800 
 36 OXT     24.7600    12.0360    15.6960 O.co2 1 SAM  -0.9000 
 37 N1      23.5330     9.0540     6.2640 N.2   1 SAM  -0.6610 
 38 C2      23.5310    10.3810     6.6620 C.2   1 SAM   0.6010 
 39 H2      23.9359    11.1408     6.0100 H     1 SAM   0.0600 
 40 N3      23.0090    10.7340     7.8980 N.2   1 SAM  -0.6610 
 41 C4      22.4870     9.7790     8.7230 C.2   1 SAM   0.5000 
 42 C5      22.4770     8.4400     8.3310 C.2   1 SAM   0.4500 
 43 C6      23.0080     8.0760     7.0910 C.2   1 SAM   0.6110 
 44 N6      22.9950     6.7970     6.7120 N.2   1 SAM  -0.2000 
 45 H62     23.3784     6.5319     5.8160 H     1 SAM   0.4000 
 46 H61     22.6018     6.0938     7.3211 H     1 SAM   0.4000 
 47 N7      21.8980     7.7160     9.3190 N.2   1 SAM  -0.6960 
 48 C8      21.5490     8.5490    10.3250 C.3   1 SAM   0.4551 
 49 H81     22.0746     8.2641    11.2364 H     1 SAM   0.0800 
 50 H82     20.4735     8.4914    10.4927 H     1 SAM   0.0800 
 51 N9      21.8950     9.8340     9.9730 N.pl3 1 SAM  -0.7882 
@<TRIPOS>BOND
  1   1   2  1   
  2   1   3  1   
  3   1   4  1   
  4   1   5  1   
  5   5   6  1   
  6   5   7  1   
  7   5   9  1   
  8   7   8  ar  
  9   7  36  ar  
 10   9  10  1   
 11   9  11  1   
 12   9  12  1   
 13  12  13  1   
 14  12  14  1   
 15  12  15  1   
 16  15  16  1   
 17  15  20  1   
 18  16  17  1   
 19  16  18  1   
 20  16  19  1   
 21  20  21  1   
 22  20  22  1   
 23  20  23  1   
 24  23  24  1   
 25  23  25  1   
 26  23  26  1   
 27  25  34  1   
 28  26  27  1   
 29  26  28  1   
 30  26  30  1   
 31  28  29  1   
 32  30  31  1   
 33  30  32  1   
 34  30  34  1   
 35  32  33  1   
 36  34  35  1   
 37  34  51  1   
 38  37  38  2   
 39  37  43  1   
 40  38  39  1   
 41  38  40  1   
 42  40  41  2   
 43  41  42  1   
 44  41  51  1   
 45  42  43  1   
 46  42  47  2   
 47  43  44  2   
 48  44  45  1   
 49  44  46  1   
 50  47  48  1   
 51  48  49  1   
 52  48  50  1   
 53  48  51  1   
@<TRIPOS>SUBSTRUCTURE
  1 SAM  25 GROUP 4 A **** 0

# MOE 2022.02 (io_trps.svl 2020.11)
