# created with PyMOL 2.4.0
@<TRIPOS>MOLECULE
temp
50 52 1                 
SMALL
USER_CHARGES
@<TRIPOS>ATOM
1	   N	18.931	3.154	23.764	N.4	1	SAM1	0.000	
2	  CA	18.719	3.308	25.237	C.3	1	SAM1	0.000	
3	   C	18.750	4.774	25.627	C.2	1	SAM1	0.000	
4	   O	19.169	5.613	24.820	O.co2	1	SAM1	0.000	
5	  CB	19.782	2.553	26.018	C.3	1	SAM1	0.000	
6	  CG	21.189	3.132	25.947	C.3	1	SAM1	0.000	
7	  SD	22.282	2.230	27.069	S.3	1	SAM1	0.000	
8	  CE	23.680	3.371	27.235	C.3	1	SAM1	0.000	
9	 C5'	22.918	0.923	25.990	C.3	1	SAM1	0.000	
10	 C4'	22.031	-0.313	26.054	C.3	1	SAM1	0.000	
11	 O4'	22.524	-1.284	25.157	O.3	1	SAM1	0.000	
12	 C3'	22.020	-0.963	27.433	C.3	1	SAM1	0.000	
13	 O3'	20.685	-0.996	27.902	O.3	1	SAM1	0.000	
14	 C2'	22.576	-2.363	27.208	C.3	1	SAM1	0.000	
15	 O2'	21.967	-3.350	28.016	O.3	1	SAM1	0.000	
16	 C1'	22.285	-2.550	25.728	C.3	1	SAM1	0.000	
17	 OXT	18.377	5.147	26.739	O.co2	1	SAM1	0.000	
18	  N1	22.319	-6.834	22.801	N.2	1	SAM1	0.000	
19	  C2	21.228	-6.128	23.282	C.2	1	SAM1	0.000	
20	  N3	21.397	-5.000	24.060	N.2	1	SAM1	0.000	
21	  C4	22.664	-4.585	24.331	C.2	1	SAM1	0.000	
22	  C5	23.773	-5.270	23.843	C.2	1	SAM1	0.000	
23	  C6	23.596	-6.414	23.067	C.2	1	SAM1	0.000	
24	  N6	24.635	-7.095	22.581	N.pl3	1	SAM1	0.000	
25	  N7	24.881	-4.627	24.277	N.2	1	SAM1	0.000	
26	  C8	24.503	-3.559	25.014	C.2	1	SAM1	0.000	
27	  N9	23.135	-3.529	25.059	N.2	1	SAM1	0.000	
28	  HA	17.741	2.892	25.479	 H	1	SAM1	0.000	
29	 HB1	19.819	1.534	25.634	 H	1	SAM1	0.000	
30	 HB2	19.479	2.536	27.065	 H	1	SAM1	0.000	
31	 HG1	21.163	4.183	26.235	 H	1	SAM1	0.000	
32	 HG2	21.565	3.044	24.928	 H	1	SAM1	0.000	
33	 HE1	23.394	4.205	27.876	 H	1	SAM1	0.000	
34	 HE2	23.960	3.748	26.251	 H	1	SAM1	0.000	
35	 HE3	24.527	2.846	27.678	 H	1	SAM1	0.000	
36	  H1	19.833	3.533	23.512	 H	1	SAM1	0.000	
37	  H2	18.206	3.651	23.266	 H	1	SAM1	0.000	
38	  H2	20.230	-6.465	23.045	 H	1	SAM1	0.000	
39	  H3	18.897	2.175	23.520	 H	1	SAM1	0.000	
40	  H8	25.167	-2.850	25.487	 H	1	SAM1	0.000	
41	 H1'	21.269	-2.927	25.610	 H	1	SAM1	0.000	
42	 H2'	23.627	-2.467	27.479	 H	1	SAM1	0.000	
43	 H2'	22.155	-3.132	28.932	 H	1	SAM1	0.000	
44	 H3'	22.610	-0.430	28.178	 H	1	SAM1	0.000	
45	 H3'	20.685	-1.455	28.745	 H	1	SAM1	0.000	
46	 H4'	21.022	0.017	25.807	 H	1	SAM1	0.000	
47	 H61	25.577	-6.784	22.773	 H	1	SAM1	0.000	
48	 H62	24.480	-7.921	22.021	 H	1	SAM1	0.000	
49	H5'1	23.926	0.656	26.308	 H	1	SAM1	0.000	
50	H5'2	22.946	1.289	24.964	 H	1	SAM1	0.000	
@<TRIPOS>BOND
1 1 2 1
2 1 36 1
3 1 37 1
4 1 39 1
5 2 3 1
6 2 5 1
7 2 28 1
8 3 4 ar
9 3 17 ar
10 5 6 1
11 5 29 1
12 5 30 1
13 6 7 1
14 6 31 1
15 6 32 1
16 7 8 1
17 7 9 1
18 8 33 1
19 8 34 1
20 8 35 1
21 9 10 1
22 9 49 1
23 9 50 1
24 10 11 1
25 10 12 1
26 10 46 1
27 11 16 1
28 12 13 1
29 12 14 1
30 12 44 1
31 13 45 1
32 14 15 1
33 14 16 1
34 14 42 1
35 15 43 1
36 16 27 1
37 16 41 1
38 18 19 ar
39 18 23 ar
40 19 20 ar
41 19 38 1
42 20 21 ar
43 21 22 ar
44 21 27 ar
45 22 23 ar
46 22 25 ar
47 23 24 1
48 24 47 1
49 24 48 1
50 25 26 ar
51 26 27 ar
52 26 40 1
@<TRIPOS>SUBSTRUCTURE
1	SAM1	1	GROUP	1 A	SAM
