# created with PyMOL 2.5.0
@<TRIPOS>MOLECULE
3DXY
27 29 1                 
SMALL
USER_CHARGES
@<TRIPOS>ATOM
1	   N	18.931	3.154	23.764	N.3	1	SAM1	0.000	
2	  CA	18.719	3.308	25.237	C.3	1	SAM1	0.000	
3	   C	18.750	4.774	25.627	C.2	1	SAM1	0.000	
4	   O	19.169	5.613	24.820	O.co2	1	SAM1	0.000	
5	  CB	19.782	2.553	26.018	C.3	1	SAM1	0.000	
6	  CG	21.189	3.132	25.947	C.3	1	SAM1	0.000	
7	  SD	22.282	2.230	27.069	S.3	1	SAM1	0.000	
8	  CE	23.680	3.371	27.235	C.3	1	SAM1	0.000	
9	 C5'	22.918	0.923	25.990	C.3	1	SAM1	0.000	
10	 C4'	22.031	-0.313	26.054	C.3	1	SAM1	0.000	
11	 O4'	22.524	-1.284	25.157	O.3	1	SAM1	0.000	
12	 C3'	22.020	-0.963	27.433	C.3	1	SAM1	0.000	
13	 O3'	20.685	-0.996	27.902	O.3	1	SAM1	0.000	
14	 C2'	22.576	-2.363	27.208	C.3	1	SAM1	0.000	
15	 O2'	21.967	-3.350	28.016	O.3	1	SAM1	0.000	
16	 C1'	22.285	-2.550	25.728	C.3	1	SAM1	0.000	
17	 OXT	18.377	5.147	26.739	O.co2	1	SAM1	0.000	
18	  N1	22.319	-6.834	22.801	N.2	1	SAM1	0.000	
19	  C2	21.228	-6.128	23.282	C.2	1	SAM1	0.000	
20	  N3	21.397	-5.000	24.060	N.2	1	SAM1	0.000	
21	  C4	22.664	-4.585	24.331	C.2	1	SAM1	0.000	
22	  C5	23.773	-5.270	23.843	C.2	1	SAM1	0.000	
23	  C6	23.596	-6.414	23.067	C.2	1	SAM1	0.000	
24	  N6	24.635	-7.095	22.581	N.pl3	1	SAM1	0.000	
25	  N7	24.881	-4.627	24.277	N.2	1	SAM1	0.000	
26	  C8	24.503	-3.559	25.014	C.2	1	SAM1	0.000	
27	  N9	23.135	-3.529	25.059	N.2	1	SAM1	0.000	
@<TRIPOS>BOND
1 1 2 1
2 2 3 1
3 2 5 1
4 3 4 ar
5 3 17 ar
6 5 6 1
7 6 7 1
8 7 8 1
9 7 9 1
10 9 10 1
11 10 11 1
12 10 12 1
13 11 16 1
14 12 13 1
15 12 14 1
16 14 15 1
17 14 16 1
18 16 27 1
19 18 19 ar
20 18 23 ar
21 19 20 ar
22 20 21 ar
23 21 22 ar
24 21 27 ar
25 22 23 ar
26 22 25 ar
27 23 24 1
28 25 26 ar
29 26 27 ar
@<TRIPOS>SUBSTRUCTURE
1	SAM1	1	GROUP	1 A	SAM
