@<TRIPOS>MOLECULE
3DXY.A
51 53 1 0 0 
SMALL
USER_CHARGES


@<TRIPOS>ATOM
  1 N       18.9310     3.1540    23.7640 N.4   1 SAM1  -0.8530 
  2 H1      19.8328     3.5328    23.5123 H     1 SAM1   0.4500 
  3 H2      18.2063     3.6506    23.2658 H     1 SAM1   0.4500 
  4 H3      18.8971     2.1746    23.5195 H     1 SAM1   0.4500 
  5 CA      18.7190     3.3080    25.2370 C.3   1 SAM1   0.3170 
  6 HA      17.7411     2.8920    25.4795 H     1 SAM1   0.0800 
  7 C       18.7500     4.7740    25.6270 C.2   1 SAM1   0.9060 
  8 O       19.1690     5.6130    24.8200 O.co2 1 SAM1  -0.9000 
  9 CB      19.7820     2.5530    26.0180 C.3   1 SAM1  -0.1600 
 10 HB1     19.8194     1.5337    25.6336 H     1 SAM1   0.0800 
 11 HB2     19.4794     2.5356    27.0650 H     1 SAM1   0.0800 
 12 CG      21.1890     3.1320    25.9470 C.3   1 SAM1  -0.1525 
 13 HG1     21.1625     4.1829    26.2352 H     1 SAM1   0.0800 
 14 HG2     21.5651     3.0442    24.9277 H     1 SAM1   0.0800 
 15 SD      22.2820     2.2300    27.0690 S.3   1 SAM1   0.9775 
 16 CE      23.6800     3.3710    27.2350 C.3   1 SAM1  -0.2325 
 17 HE1     23.3941     4.2050    27.8759 H     1 SAM1   0.0800 
 18 HE2     23.9601     3.7480    26.2514 H     1 SAM1   0.0800 
 19 HE3     24.5267     2.8463    27.6776 H     1 SAM1   0.0800 
 20 C5'     22.9180     0.9230    25.9900 C.3   1 SAM1  -0.1525 
 21 H5'1    23.9257     0.6561    26.3083 H     1 SAM1   0.0800 
 22 H5'2    22.9462     1.2894    24.9638 H     1 SAM1   0.0800 
 23 C4'     22.0310    -0.3130    26.0540 C.3   1 SAM1   0.2000 
 24 H4'     21.0222     0.0174    25.8067 H     1 SAM1   0.0800 
 25 O4'     22.5240    -1.2840    25.1570 O.3   1 SAM1  -0.5600 
 26 C3'     22.0200    -0.9630    27.4330 C.3   1 SAM1   0.2000 
 27 H3'     22.6101    -0.4295    28.1781 H     1 SAM1   0.0800 
 28 O3'     20.6850    -0.9960    27.9020 O.3   1 SAM1  -0.6800 
 29 H3'     20.6848    -1.4553    28.7450 H     1 SAM1   0.4000 
 30 C2'     22.5760    -2.3630    27.2080 C.3   1 SAM1   0.2000 
 31 H2'     23.6267    -2.4672    27.4787 H     1 SAM1   0.0800 
 32 O2'     21.9670    -3.3500    28.0160 O.3   1 SAM1  -0.6800 
 33 H2'     22.3473    -4.1978    27.7748 H     1 SAM1   0.4000 
 34 C1'     22.2850    -2.5500    25.7280 C.3   1 SAM1   0.5691 
 35 H1'     21.2692    -2.9271    25.6096 H     1 SAM1   0.0800 
 36 OXT     18.3770     5.1470    26.7390 O.co2 1 SAM1  -0.9000 
 37 N1      22.3190    -6.8340    22.8010 N.2   1 SAM1  -0.6610 
 38 C2      21.2280    -6.1280    23.2820 C.2   1 SAM1   0.6010 
 39 H2      20.2299    -6.4654    23.0446 H     1 SAM1   0.0600 
 40 N3      21.3970    -5.0000    24.0600 N.2   1 SAM1  -0.6610 
 41 C4      22.6640    -4.5850    24.3310 C.2   1 SAM1   0.5000 
 42 C5      23.7730    -5.2700    23.8430 C.2   1 SAM1   0.4500 
 43 C6      23.5960    -6.4140    23.0670 C.2   1 SAM1   0.6110 
 44 N6      24.6350    -7.0950    22.5810 N.2   1 SAM1  -0.2000 
 45 H62     24.4800    -7.9212    22.0211 H     1 SAM1   0.4000 
 46 H61     25.5767    -6.7844    22.7729 H     1 SAM1   0.4000 
 47 N7      24.8810    -4.6270    24.2770 N.2   1 SAM1  -0.6960 
 48 C8      24.5030    -3.5590    25.0140 C.3   1 SAM1   0.4551 
 49 H81     24.8766    -2.6437    24.5549 H     1 SAM1   0.0800 
 50 H82     24.9029    -3.6483    26.0240 H     1 SAM1   0.0800 
 51 N9      23.1350    -3.5290    25.0590 N.pl3 1 SAM1  -0.7882 
@<TRIPOS>BOND
  1   1   2  1   
  2   1   3  1   
  3   1   4  1   
  4   1   5  1   
  5   5   6  1   
  6   5   7  1   
  7   5   9  1   
  8   7   8  ar  
  9   7  36  ar  
 10   9  10  1   
 11   9  11  1   
 12   9  12  1   
 13  12  13  1   
 14  12  14  1   
 15  12  15  1   
 16  15  16  1   
 17  15  20  1   
 18  16  17  1   
 19  16  18  1   
 20  16  19  1   
 21  20  21  1   
 22  20  22  1   
 23  20  23  1   
 24  23  24  1   
 25  23  25  1   
 26  23  26  1   
 27  25  34  1   
 28  26  27  1   
 29  26  28  1   
 30  26  30  1   
 31  28  29  1   
 32  30  31  1   
 33  30  32  1   
 34  30  34  1   
 35  32  33  1   
 36  34  35  1   
 37  34  51  1   
 38  37  38  2   
 39  37  43  1   
 40  38  39  1   
 41  38  40  1   
 42  40  41  2   
 43  41  42  1   
 44  41  51  1   
 45  42  43  1   
 46  42  47  2   
 47  43  44  2   
 48  44  45  1   
 49  44  46  1   
 50  47  48  1   
 51  48  49  1   
 52  48  50  1   
 53  48  51  1   
@<TRIPOS>SUBSTRUCTURE
  1 SAM1  25 GROUP 4 A **** 0

# MOE 2022.02 (io_trps.svl 2020.11)
