@<TRIPOS>MOLECULE
5X7F.A
51 53 1 0 0 
SMALL
USER_CHARGES


@<TRIPOS>ATOM
  1 N       -1.1480    18.9440    51.6040 N.4   1 SAM  -0.8530 
  2 H1      -1.8515    19.1206    50.9012 H     1 SAM   0.4500 
  3 H2      -0.9395    17.9561    51.6309 H     1 SAM   0.4500 
  4 H3      -0.3092    19.4591    51.3777 H     1 SAM   0.4500 
  5 CA      -1.6460    19.3730    52.9110 C.3   1 SAM   0.3170 
  6 HA      -0.8664    19.1698    53.6451 H     1 SAM   0.0800 
  7 C       -2.8980    18.5930    53.2930 C.2   1 SAM   0.9060 
  8 O       -3.7590    18.3060    52.4530 O.co2 1 SAM  -0.9000 
  9 CB      -1.9400    20.8630    52.9220 C.3   1 SAM  -0.1600 
 10 HB1     -2.2182    21.1532    53.9351 H     1 SAM   0.0800 
 11 HB2     -2.7737    21.0561    52.2469 H     1 SAM   0.0800 
 12 CG      -0.7600    21.7110    52.4850 C.3   1 SAM  -0.1525 
 13 HG1     -0.4859    21.4272    51.4689 H     1 SAM   0.0800 
 14 HG2      0.0765    21.5138    53.1555 H     1 SAM   0.0800 
 15 SD      -1.1140    23.4830    52.5120 S.3   1 SAM   0.9775 
 16 CE      -2.3170    23.5980    51.1490 C.3   1 SAM  -0.2325 
 17 HE1     -3.2827    23.2193    51.4838 H     1 SAM   0.0800 
 18 HE2     -1.9670    23.0045    50.3044 H     1 SAM   0.0800 
 19 HE3     -2.4212    24.6390    50.8432 H     1 SAM   0.0800 
 20 C5'      0.3630    24.1650    51.6880 C.3   1 SAM  -0.1525 
 21 H5'1     0.2365    25.2423    51.5811 H     1 SAM   0.0800 
 22 H5'2     0.4533    23.7102    50.7016 H     1 SAM   0.0800 
 23 C4'      1.6580    23.8970    52.4740 C.3   1 SAM   0.2000 
 24 H4'      1.6078    22.8459    52.7582 H     1 SAM   0.0800 
 25 O4'      2.7930    24.1790    51.6740 O.3   1 SAM  -0.5600 
 26 C3'      1.7890    24.7590    53.7350 C.3   1 SAM   0.2000 
 27 H3'      0.8956    25.3543    53.9236 H     1 SAM   0.0800 
 28 O3'      2.0060    23.9230    54.8530 O.3   1 SAM  -0.6800 
 29 H3'      2.1248    24.4885    55.6196 H     1 SAM   0.4000 
 30 C2'      3.0190    25.6310    53.5010 C.3   1 SAM   0.2000 
 31 H2'      2.7949    26.6491    53.1826 H     1 SAM   0.0800 
 32 O2'      3.7600    25.7810    54.7020 O.3   1 SAM  -0.6800 
 33 H2'      3.9797    24.9020    55.0192 H     1 SAM   0.4000 
 34 C1'      3.7820    24.8380    52.4490 C.3   1 SAM   0.5691 
 35 H1'      4.4662    24.1868    52.9930 H     1 SAM   0.0800 
 36 OXT     -3.0550    18.2240    54.4550 O.co2 1 SAM  -0.9000 
 37 N1       8.3550    24.5510    50.0560 N.2   1 SAM  -0.6610 
 38 C2       7.7570    23.6390    50.9090 C.2   1 SAM   0.6010 
 39 H2       8.2547    22.7078    51.1359 H     1 SAM   0.0600 
 40 N3       6.5230    23.9170    51.4720 N.2   1 SAM  -0.6610 
 41 C4       5.8960    25.0780    51.1470 C.2   1 SAM   0.5000 
 42 C5       6.4810    26.0030    50.2940 C.2   1 SAM   0.4500 
 43 C6       7.7330    25.7350    49.7500 C.2   1 SAM   0.6110 
 44 N6       8.3300    26.5920    48.9220 N.2   1 SAM  -0.2000 
 45 H62      9.2394    26.3748    48.5399 H     1 SAM   0.4000 
 46 H61      7.8730    27.4587    48.6766 H     1 SAM   0.4000 
 47 N7       5.6210    27.0460    50.1770 N.2   1 SAM  -0.6960 
 48 C8       4.5240    26.7990    50.9340 C.3   1 SAM   0.4551 
 49 H81      3.6364    26.7785    50.3016 H     1 SAM   0.0800 
 50 H82      4.4141    27.5772    51.6893 H     1 SAM   0.0800 
 51 N9       4.6880    25.5830    51.5420 N.pl3 1 SAM  -0.7882 
@<TRIPOS>BOND
  1   1   2  1   
  2   1   3  1   
  3   1   4  1   
  4   1   5  1   
  5   5   6  1   
  6   5   7  1   
  7   5   9  1   
  8   7   8  ar  
  9   7  36  ar  
 10   9  10  1   
 11   9  11  1   
 12   9  12  1   
 13  12  13  1   
 14  12  14  1   
 15  12  15  1   
 16  15  16  1   
 17  15  20  1   
 18  16  17  1   
 19  16  18  1   
 20  16  19  1   
 21  20  21  1   
 22  20  22  1   
 23  20  23  1   
 24  23  24  1   
 25  23  25  1   
 26  23  26  1   
 27  25  34  1   
 28  26  27  1   
 29  26  28  1   
 30  26  30  1   
 31  28  29  1   
 32  30  31  1   
 33  30  32  1   
 34  30  34  1   
 35  32  33  1   
 36  34  35  1   
 37  34  51  1   
 38  37  38  2   
 39  37  43  1   
 40  38  39  1   
 41  38  40  1   
 42  40  41  2   
 43  41  42  1   
 44  41  51  1   
 45  42  43  1   
 46  42  47  2   
 47  43  44  2   
 48  44  45  1   
 49  44  46  1   
 50  47  48  1   
 51  48  49  1   
 52  48  50  1   
 53  48  51  1   
@<TRIPOS>SUBSTRUCTURE
  1 SAM  25 GROUP 4 A **** 0

# MOE 2022.02 (io_trps.svl 2020.11)
