# created with PyMOL 2.5.0
@<TRIPOS>MOLECULE
5X7F
27 29 1                 
SMALL
USER_CHARGES
@<TRIPOS>ATOM
1	   N	-1.148	18.944	51.604	N.3	1	SAM301	0.000	
2	  CA	-1.646	19.373	52.911	C.3	1	SAM301	0.000	
3	   C	-2.898	18.593	53.293	C.2	1	SAM301	0.000	
4	   O	-3.759	18.306	52.453	O.co2	1	SAM301	0.000	
5	  CB	-1.940	20.863	52.922	C.3	1	SAM301	0.000	
6	  CG	-0.760	21.711	52.485	C.3	1	SAM301	0.000	
7	  SD	-1.114	23.483	52.512	S.3	1	SAM301	0.000	
8	  CE	-2.317	23.598	51.149	C.3	1	SAM301	0.000	
9	 C5'	0.363	24.165	51.688	C.3	1	SAM301	0.000	
10	 C4'	1.658	23.897	52.474	C.3	1	SAM301	0.000	
11	 O4'	2.793	24.179	51.674	O.3	1	SAM301	0.000	
12	 C3'	1.789	24.759	53.735	C.3	1	SAM301	0.000	
13	 O3'	2.006	23.923	54.853	O.3	1	SAM301	0.000	
14	 C2'	3.019	25.631	53.501	C.3	1	SAM301	0.000	
15	 O2'	3.760	25.781	54.702	O.3	1	SAM301	0.000	
16	 C1'	3.782	24.838	52.449	C.3	1	SAM301	0.000	
17	 OXT	-3.055	18.224	54.455	O.co2	1	SAM301	0.000	
18	  N1	8.355	24.551	50.056	N.2	1	SAM301	0.000	
19	  C2	7.757	23.639	50.909	C.2	1	SAM301	0.000	
20	  N3	6.523	23.917	51.472	N.2	1	SAM301	0.000	
21	  C4	5.896	25.078	51.147	C.2	1	SAM301	0.000	
22	  C5	6.481	26.003	50.294	C.2	1	SAM301	0.000	
23	  C6	7.733	25.735	49.750	C.2	1	SAM301	0.000	
24	  N6	8.330	26.592	48.922	N.pl3	1	SAM301	0.000	
25	  N7	5.621	27.046	50.177	N.2	1	SAM301	0.000	
26	  C8	4.524	26.799	50.934	C.2	1	SAM301	0.000	
27	  N9	4.688	25.583	51.542	N.2	1	SAM301	0.000	
@<TRIPOS>BOND
1 1 2 1
2 2 3 1
3 2 5 1
4 3 4 ar
5 3 17 ar
6 5 6 1
7 6 7 1
8 7 8 1
9 7 9 1
10 9 10 1
11 10 11 1
12 10 12 1
13 11 16 1
14 12 13 1
15 12 14 1
16 14 15 1
17 14 16 1
18 16 27 1
19 18 19 ar
20 18 23 ar
21 19 20 ar
22 20 21 ar
23 21 22 ar
24 21 27 ar
25 22 23 ar
26 22 25 ar
27 23 24 1
28 25 26 ar
29 26 27 ar
@<TRIPOS>SUBSTRUCTURE
1	SAM301	1	GROUP	1 A	SAM
