# created with PyMOL 2.4.0
@<TRIPOS>MOLECULE
temp
50 52 1                 
SMALL
USER_CHARGES
@<TRIPOS>ATOM
1	   N	-1.148	18.944	51.604	N.4	1	SAM1	0.000	
2	  CA	-1.646	19.373	52.911	C.3	1	SAM1	0.000	
3	   C	-2.898	18.593	53.293	C.2	1	SAM1	0.000	
4	   O	-3.759	18.306	52.453	O.co2	1	SAM1	0.000	
5	  CB	-1.940	20.863	52.922	C.3	1	SAM1	0.000	
6	  CG	-0.760	21.711	52.485	C.3	1	SAM1	0.000	
7	  SD	-1.114	23.483	52.512	S.3	1	SAM1	0.000	
8	  CE	-2.317	23.598	51.149	C.3	1	SAM1	0.000	
9	 C5'	0.363	24.165	51.688	C.3	1	SAM1	0.000	
10	 C4'	1.658	23.897	52.474	C.3	1	SAM1	0.000	
11	 O4'	2.793	24.179	51.674	O.3	1	SAM1	0.000	
12	 C3'	1.789	24.759	53.735	C.3	1	SAM1	0.000	
13	 O3'	2.006	23.923	54.853	O.3	1	SAM1	0.000	
14	 C2'	3.019	25.631	53.501	C.3	1	SAM1	0.000	
15	 O2'	3.760	25.781	54.702	O.3	1	SAM1	0.000	
16	 C1'	3.782	24.838	52.449	C.3	1	SAM1	0.000	
17	 OXT	-3.055	18.224	54.455	O.co2	1	SAM1	0.000	
18	  N1	8.355	24.551	50.056	N.2	1	SAM1	0.000	
19	  C2	7.757	23.639	50.909	C.2	1	SAM1	0.000	
20	  N3	6.523	23.917	51.472	N.2	1	SAM1	0.000	
21	  C4	5.896	25.078	51.147	C.2	1	SAM1	0.000	
22	  C5	6.481	26.003	50.294	C.2	1	SAM1	0.000	
23	  C6	7.733	25.735	49.750	C.2	1	SAM1	0.000	
24	  N6	8.330	26.592	48.922	N.pl3	1	SAM1	0.000	
25	  N7	5.621	27.046	50.177	N.2	1	SAM1	0.000	
26	  C8	4.524	26.799	50.934	C.2	1	SAM1	0.000	
27	  N9	4.688	25.583	51.542	N.2	1	SAM1	0.000	
28	  HA	-0.866	19.170	53.645	 H	1	SAM1	0.000	
29	 HB1	-2.218	21.153	53.935	 H	1	SAM1	0.000	
30	 HB2	-2.774	21.056	52.247	 H	1	SAM1	0.000	
31	 HG1	-0.486	21.427	51.469	 H	1	SAM1	0.000	
32	 HG2	0.076	21.514	53.155	 H	1	SAM1	0.000	
33	 HE1	-3.283	23.219	51.484	 H	1	SAM1	0.000	
34	 HE2	-1.967	23.004	50.304	 H	1	SAM1	0.000	
35	 HE3	-2.421	24.639	50.843	 H	1	SAM1	0.000	
36	  H1	-1.852	19.121	50.901	 H	1	SAM1	0.000	
37	  H2	-0.939	17.956	51.631	 H	1	SAM1	0.000	
38	  H2	8.255	22.708	51.136	 H	1	SAM1	0.000	
39	  H3	-0.309	19.459	51.378	 H	1	SAM1	0.000	
40	  H8	3.668	27.449	51.039	 H	1	SAM1	0.000	
41	 H1'	4.466	24.187	52.993	 H	1	SAM1	0.000	
42	 H2'	2.795	26.649	53.183	 H	1	SAM1	0.000	
43	 H2'	3.980	24.902	55.019	 H	1	SAM1	0.000	
44	 H3'	0.896	25.354	53.924	 H	1	SAM1	0.000	
45	 H3'	2.125	24.489	55.620	 H	1	SAM1	0.000	
46	 H4'	1.608	22.846	52.758	 H	1	SAM1	0.000	
47	 H61	7.873	27.459	48.677	 H	1	SAM1	0.000	
48	 H62	9.239	26.375	48.540	 H	1	SAM1	0.000	
49	H5'1	0.236	25.242	51.581	 H	1	SAM1	0.000	
50	H5'2	0.453	23.710	50.702	 H	1	SAM1	0.000	
@<TRIPOS>BOND
1 1 2 1
2 1 36 1
3 1 37 1
4 1 39 1
5 2 3 1
6 2 5 1
7 2 28 1
8 3 4 ar
9 3 17 ar
10 5 6 1
11 5 29 1
12 5 30 1
13 6 7 1
14 6 31 1
15 6 32 1
16 7 8 1
17 7 9 1
18 8 33 1
19 8 34 1
20 8 35 1
21 9 10 1
22 9 49 1
23 9 50 1
24 10 11 1
25 10 12 1
26 10 46 1
27 11 16 1
28 12 13 1
29 12 14 1
30 12 44 1
31 13 45 1
32 14 15 1
33 14 16 1
34 14 42 1
35 15 43 1
36 16 27 1
37 16 41 1
38 18 19 ar
39 18 23 ar
40 19 20 ar
41 19 38 1
42 20 21 ar
43 21 22 ar
44 21 27 ar
45 22 23 ar
46 22 25 ar
47 23 24 1
48 24 47 1
49 24 48 1
50 25 26 ar
51 26 27 ar
52 26 40 1
@<TRIPOS>SUBSTRUCTURE
1	SAM1	1	GROUP	1 A	SAM
