# created with PyMOL 2.4.0
@<TRIPOS>MOLECULE
temp
50 52 1                 
SMALL
USER_CHARGES
@<TRIPOS>ATOM
1	   N	4.478	9.062	16.730	N.4	1	SAM1	0.000	
2	  CA	3.956	8.325	15.582	C.3	1	SAM1	0.000	
3	   C	4.017	9.155	14.301	C.2	1	SAM1	0.000	
4	   O	4.557	10.267	14.265	O.co2	1	SAM1	0.000	
5	  CB	2.511	7.853	15.822	C.3	1	SAM1	0.000	
6	  CG	2.380	6.600	16.679	C.3	1	SAM1	0.000	
7	  SD	3.026	5.208	15.708	S.3	1	SAM1	0.000	
8	  CE	1.785	3.909	15.916	C.3	1	SAM1	0.000	
9	 C5'	4.295	4.481	16.781	C.3	1	SAM1	0.000	
10	 C4'	5.542	5.339	16.913	C.3	1	SAM1	0.000	
11	 O4'	5.328	6.431	17.797	O.3	1	SAM1	0.000	
12	 C3'	6.656	4.508	17.533	C.3	1	SAM1	0.000	
13	 O3'	7.314	3.769	16.524	O.3	1	SAM1	0.000	
14	 C2'	7.484	5.549	18.260	C.3	1	SAM1	0.000	
15	 O2'	8.286	6.293	17.371	O.3	1	SAM1	0.000	
16	 C1'	6.425	6.560	18.681	C.3	1	SAM1	0.000	
17	 OXT	3.528	8.706	13.252	O.co2	1	SAM1	0.000	
18	  N1	7.518	7.350	23.685	N.2	1	SAM1	0.000	
19	  C2	8.299	7.606	22.586	C.2	1	SAM1	0.000	
20	  N3	7.835	7.312	21.332	N.2	1	SAM1	0.000	
21	  C4	6.590	6.802	21.182	C.2	1	SAM1	0.000	
22	  C5	5.774	6.535	22.279	C.2	1	SAM1	0.000	
23	  C6	6.252	6.826	23.551	C.2	1	SAM1	0.000	
24	  N6	5.523	6.617	24.643	N.pl3	1	SAM1	0.000	
25	  N7	4.611	6.016	21.818	N.2	1	SAM1	0.000	
26	  C8	4.694	5.932	20.463	C.2	1	SAM1	0.000	
27	  N9	5.922	6.413	20.063	N.2	1	SAM1	0.000	
28	  HA	4.595	7.451	15.460	 H	1	SAM1	0.000	
29	 HB1	2.056	7.650	14.853	 H	1	SAM1	0.000	
30	 HB2	1.969	8.659	16.316	 H	1	SAM1	0.000	
31	 HG1	1.333	6.427	16.928	 H	1	SAM1	0.000	
32	 HG2	2.957	6.714	17.596	 H	1	SAM1	0.000	
33	 HE1	0.899	4.155	15.330	 H	1	SAM1	0.000	
34	 HE2	1.514	3.830	16.969	 H	1	SAM1	0.000	
35	 HE3	2.194	2.958	15.574	 H	1	SAM1	0.000	
36	  H1	3.916	9.887	16.885	 H	1	SAM1	0.000	
37	  H2	5.433	9.335	16.549	 H	1	SAM1	0.000	
38	  H2	9.280	8.040	22.710	 H	1	SAM1	0.000	
39	  H3	4.446	8.474	17.551	 H	1	SAM1	0.000	
40	  H8	3.924	5.551	19.808	 H	1	SAM1	0.000	
41	 H1'	6.906	7.537	18.642	 H	1	SAM1	0.000	
42	 H2'	8.103	5.084	19.028	 H	1	SAM1	0.000	
43	 H2'	8.911	5.687	16.967	 H	1	SAM1	0.000	
44	 H3'	6.350	3.732	18.235	 H	1	SAM1	0.000	
45	 H3'	8.051	3.311	16.934	 H	1	SAM1	0.000	
46	 H4'	5.795	5.701	15.917	 H	1	SAM1	0.000	
47	 H61	4.591	6.236	24.563	 H	1	SAM1	0.000	
48	 H62	5.901	6.840	25.553	 H	1	SAM1	0.000	
49	H5'1	4.583	3.514	16.368	 H	1	SAM1	0.000	
50	H5'2	3.867	4.339	17.774	 H	1	SAM1	0.000	
@<TRIPOS>BOND
1 1 2 1
2 1 36 1
3 1 37 1
4 1 39 1
5 2 3 1
6 2 5 1
7 2 28 1
8 3 4 ar
9 3 17 ar
10 5 6 1
11 5 29 1
12 5 30 1
13 6 7 1
14 6 31 1
15 6 32 1
16 7 8 1
17 7 9 1
18 8 33 1
19 8 34 1
20 8 35 1
21 9 10 1
22 9 49 1
23 9 50 1
24 10 11 1
25 10 12 1
26 10 46 1
27 11 16 1
28 12 13 1
29 12 14 1
30 12 44 1
31 13 45 1
32 14 15 1
33 14 16 1
34 14 42 1
35 15 43 1
36 16 27 1
37 16 41 1
38 18 19 ar
39 18 23 ar
40 19 20 ar
41 19 38 1
42 20 21 ar
43 21 22 ar
44 21 27 ar
45 22 23 ar
46 22 25 ar
47 23 24 1
48 24 47 1
49 24 48 1
50 25 26 ar
51 26 27 ar
52 26 40 1
@<TRIPOS>SUBSTRUCTURE
1	SAM1	1	GROUP	1 A	SAM
