# created with PyMOL 2.5.0
@<TRIPOS>MOLECULE
6WK2
27 29 1                 
SMALL
USER_CHARGES
@<TRIPOS>ATOM
1	   N	22.529	22.097	16.179	N.3	1	SAM601	0.000	
2	  CA	23.025	22.725	14.964	C.3	1	SAM601	0.000	
3	   C	22.919	21.769	13.779	C.2	1	SAM601	0.000	
4	   O	22.401	20.667	13.917	O.co2	1	SAM601	0.000	
5	  CB	24.474	23.191	15.138	C.3	1	SAM601	0.000	
6	  CG	24.587	24.529	15.848	C.3	1	SAM601	0.000	
7	  SD	23.937	25.812	14.753	S.3	1	SAM601	0.000	
8	  CE	25.155	27.140	14.874	C.3	1	SAM601	0.000	
9	 C5'	22.646	26.599	15.758	C.3	1	SAM601	0.000	
10	 C4'	21.390	25.767	15.998	C.3	1	SAM601	0.000	
11	 O4'	21.579	24.777	16.999	O.3	1	SAM601	0.000	
12	 C3'	20.287	26.671	16.522	C.3	1	SAM601	0.000	
13	 O3'	19.631	27.309	15.446	O.3	1	SAM601	0.000	
14	 C2'	19.436	25.718	17.339	C.3	1	SAM601	0.000	
15	 O2'	18.620	24.928	16.500	O.3	1	SAM601	0.000	
16	 C1'	20.471	24.736	17.880	C.3	1	SAM601	0.000	
17	 OXT	23.338	22.082	12.659	O.co2	1	SAM601	0.000	
18	  N1	19.462	24.377	23.014	N.2	1	SAM601	0.000	
19	  C2	18.657	24.034	21.955	C.2	1	SAM601	0.000	
20	  N3	19.094	24.215	20.668	N.2	1	SAM601	0.000	
21	  C4	20.330	24.713	20.423	C.2	1	SAM601	0.000	
22	  C5	21.163	25.068	21.472	C.2	1	SAM601	0.000	
23	  C6	20.723	24.891	22.781	C.2	1	SAM601	0.000	
24	  N6	21.471	25.217	23.828	N.pl3	1	SAM601	0.000	
25	  N7	22.302	25.567	20.937	N.2	1	SAM601	0.000	
26	  C8	22.202	25.527	19.586	C.2	1	SAM601	0.000	
27	  N9	20.970	25.000	19.252	N.2	1	SAM601	0.000	
@<TRIPOS>BOND
1 1 2 1
2 2 3 1
3 2 5 1
4 3 4 ar
5 3 17 ar
6 5 6 1
7 6 7 1
8 7 8 1
9 7 9 1
10 9 10 1
11 10 11 1
12 10 12 1
13 11 16 1
14 12 13 1
15 12 14 1
16 14 15 1
17 14 16 1
18 16 27 1
19 18 19 ar
20 18 23 ar
21 19 20 ar
22 20 21 ar
23 21 22 ar
24 21 27 ar
25 22 23 ar
26 22 25 ar
27 23 24 1
28 25 26 ar
29 26 27 ar
@<TRIPOS>SUBSTRUCTURE
1	SAM601	1	GROUP	1 D	SAM
