@<TRIPOS>MOLECULE
6WK2.D
51 53 1 0 0 
SMALL
USER_CHARGES


@<TRIPOS>ATOM
  1 N       22.5290    22.0970    16.1790 N.4   1 SAM  -0.8530 
  2 H1      23.0873    21.2819    16.3887 H     1 SAM   0.4500 
  3 H2      21.5666    21.8208    16.0465 H     1 SAM   0.4500 
  4 H3      22.5888    22.7523    16.9452 H     1 SAM   0.4500 
  5 CA      23.0250    22.7250    14.9640 C.3   1 SAM   0.3170 
  6 HA      22.4045    23.5986    14.7643 H     1 SAM   0.0800 
  7 C       22.9190    21.7690    13.7790 C.2   1 SAM   0.9060 
  8 O       22.4010    20.6670    13.9170 O.co2 1 SAM  -0.9000 
  9 CB      24.4740    23.1910    15.1380 C.3   1 SAM  -0.1600 
 10 HB1     24.9303    23.2814    14.1523 H     1 SAM   0.0800 
 11 HB2     25.0118    22.4426    15.7200 H     1 SAM   0.0800 
 12 CG      24.5870    24.5290    15.8480 C.3   1 SAM  -0.1525 
 13 HG1     25.6319    24.7364    16.0786 H     1 SAM   0.0800 
 14 HG2     24.0088    24.5057    16.7717 H     1 SAM   0.0800 
 15 SD      23.9370    25.8120    14.7530 S.3   1 SAM   0.9775 
 16 CE      25.1550    27.1400    14.8740 C.3   1 SAM  -0.2325 
 17 HE1     26.0500    26.8640    14.3165 H     1 SAM   0.0800 
 18 HE2     25.4141    27.3012    15.9204 H     1 SAM   0.0800 
 19 HE3     24.7360    28.0563    14.4581 H     1 SAM   0.0800 
 20 C5'     22.6460    26.5990    15.7580 C.3   1 SAM  -0.1525 
 21 H5'1    22.3465    27.5192    15.2563 H     1 SAM   0.0800 
 22 H5'2    23.0785    26.8390    16.7293 H     1 SAM   0.0800 
 23 C4'     21.3900    25.7670    15.9980 C.3   1 SAM   0.2000 
 24 H4'     21.1444    25.2944    15.0470 H     1 SAM   0.0800 
 25 O4'     21.5790    24.7770    16.9990 O.3   1 SAM  -0.5600 
 26 C3'     20.2870    26.6710    16.5220 C.3   1 SAM   0.2000 
 27 H3'     20.6123    27.5089    17.1386 H     1 SAM   0.0800 
 28 O3'     19.6310    27.3090    15.4460 O.3   1 SAM  -0.6800 
 29 H3'     18.9041    27.8192    15.8106 H     1 SAM   0.4000 
 30 C2'     19.4360    25.7180    17.3390 C.3   1 SAM   0.2000 
 31 H2'     18.8207    26.2524    18.0629 H     1 SAM   0.0800 
 32 O2'     18.6200    24.9280    16.5000 O.3   1 SAM  -0.6800 
 33 H2'     18.0132    25.5176    16.0464 H     1 SAM   0.4000 
 34 C1'     20.4710    24.7360    17.8800 C.3   1 SAM   0.5691 
 35 H1'     19.9705    23.7695    17.9390 H     1 SAM   0.0800 
 36 OXT     23.3380    22.0820    12.6590 O.co2 1 SAM  -0.9000 
 37 N1      19.4620    24.3770    23.0140 N.2   1 SAM  -0.6610 
 38 C2      18.6570    24.0340    21.9550 C.2   1 SAM   0.6010 
 39 H2      17.6761    23.6202    22.1368 H     1 SAM   0.0600 
 40 N3      19.0940    24.2150    20.6680 N.2   1 SAM  -0.6610 
 41 C4      20.3300    24.7130    20.4230 C.2   1 SAM   0.5000 
 42 C5      21.1630    25.0680    21.4720 C.2   1 SAM   0.4500 
 43 C6      20.7230    24.8910    22.7810 C.2   1 SAM   0.6110 
 44 N6      21.4710    25.2170    23.8280 N.2   1 SAM  -0.2000 
 45 H62     21.1191    25.0746    24.7640 H     1 SAM   0.4000 
 46 H61     22.3920    25.6074    23.6887 H     1 SAM   0.4000 
 47 N7      22.3020    25.5670    20.9370 N.2   1 SAM  -0.6960 
 48 C8      22.2020    25.5270    19.5860 C.3   1 SAM   0.4551 
 49 H81     22.9934    24.8987    19.1774 H     1 SAM   0.0800 
 50 H82     22.2926    26.5348    19.1808 H     1 SAM   0.0800 
 51 N9      20.9700    25.0000    19.2520 N.pl3 1 SAM  -0.7882 
@<TRIPOS>BOND
  1   1   2  1   
  2   1   3  1   
  3   1   4  1   
  4   1   5  1   
  5   5   6  1   
  6   5   7  1   
  7   5   9  1   
  8   7   8  ar  
  9   7  36  ar  
 10   9  10  1   
 11   9  11  1   
 12   9  12  1   
 13  12  13  1   
 14  12  14  1   
 15  12  15  1   
 16  15  16  1   
 17  15  20  1   
 18  16  17  1   
 19  16  18  1   
 20  16  19  1   
 21  20  21  1   
 22  20  22  1   
 23  20  23  1   
 24  23  24  1   
 25  23  25  1   
 26  23  26  1   
 27  25  34  1   
 28  26  27  1   
 29  26  28  1   
 30  26  30  1   
 31  28  29  1   
 32  30  31  1   
 33  30  32  1   
 34  30  34  1   
 35  32  33  1   
 36  34  35  1   
 37  34  51  1   
 38  37  38  2   
 39  37  43  1   
 40  38  39  1   
 41  38  40  1   
 42  40  41  2   
 43  41  42  1   
 44  41  51  1   
 45  42  43  1   
 46  42  47  2   
 47  43  44  2   
 48  44  45  1   
 49  44  46  1   
 50  47  48  1   
 51  48  49  1   
 52  48  50  1   
 53  48  51  1   
@<TRIPOS>SUBSTRUCTURE
  1 SAM  25 GROUP 4 D **** 0

# MOE 2022.02 (io_trps.svl 2020.11)
