@<TRIPOS>MOLECULE
6WK2.A
51 53 1 0 0 
SMALL
USER_CHARGES


@<TRIPOS>ATOM
  1 N        4.4780     9.0620    16.7300 N.4   1 SAM  -0.8530 
  2 H1       3.9157     9.8866    16.8846 H     1 SAM   0.4500 
  3 H2       5.4333     9.3351    16.5487 H     1 SAM   0.4500 
  4 H3       4.4459     8.4739    17.5505 H     1 SAM   0.4500 
  5 CA       3.9560     8.3250    15.5820 C.3   1 SAM   0.3170 
  6 HA       4.5951     7.4505    15.4601 H     1 SAM   0.0800 
  7 C        4.0170     9.1550    14.3010 C.2   1 SAM   0.9060 
  8 O        4.5570    10.2670    14.2650 O.co2 1 SAM  -0.9000 
  9 CB       2.5110     7.8530    15.8220 C.3   1 SAM  -0.1600 
 10 HB1      2.0557     7.6496    14.8527 H     1 SAM   0.0800 
 11 HB2      1.9689     8.6594    16.3159 H     1 SAM   0.0800 
 12 CG       2.3800     6.6000    16.6790 C.3   1 SAM  -0.1525 
 13 HG1      1.3330     6.4266    16.9278 H     1 SAM   0.0800 
 14 HG2      2.9574     6.7141    17.5964 H     1 SAM   0.0800 
 15 SD       3.0260     5.2080    15.7080 S.3   1 SAM   0.9775 
 16 CE       1.7850     3.9090    15.9160 C.3   1 SAM  -0.2325 
 17 HE1      0.8994     4.1555    15.3303 H     1 SAM   0.0800 
 18 HE2      1.5141     3.8305    16.9689 H     1 SAM   0.0800 
 19 HE3      2.1936     2.9581    15.5741 H     1 SAM   0.0800 
 20 C5'      4.2950     4.4810    16.7810 C.3   1 SAM  -0.1525 
 21 H5'1     4.5835     3.5144    16.3680 H     1 SAM   0.0800 
 22 H5'2     3.8674     4.3390    17.7735 H     1 SAM   0.0800 
 23 C4'      5.5420     5.3390    16.9130 C.3   1 SAM   0.2000 
 24 H4'      5.7950     5.7010    15.9165 H     1 SAM   0.0800 
 25 O4'      5.3280     6.4310    17.7970 O.3   1 SAM  -0.5600 
 26 C3'      6.6560     4.5080    17.5330 C.3   1 SAM   0.2000 
 27 H3'      6.3501     3.7319    18.2346 H     1 SAM   0.0800 
 28 O3'      7.3140     3.7690    16.5240 O.3   1 SAM  -0.6800 
 29 H3'      8.0512     3.3107    16.9339 H     1 SAM   0.4000 
 30 C2'      7.4840     5.5490    18.2600 C.3   1 SAM   0.2000 
 31 H2'      8.1030     5.0845    19.0276 H     1 SAM   0.0800 
 32 O2'      8.2860     6.2930    17.3710 O.3   1 SAM  -0.6800 
 33 H2'      8.9110     5.6865    16.9670 H     1 SAM   0.4000 
 34 C1'      6.4250     6.5600    18.6810 C.3   1 SAM   0.5691 
 35 H1'      6.9061     7.5373    18.6423 H     1 SAM   0.0800 
 36 OXT      3.5280     8.7060    13.2520 O.co2 1 SAM  -0.9000 
 37 N1       7.5180     7.3500    23.6850 N.2   1 SAM  -0.6610 
 38 C2       8.2990     7.6060    22.5860 C.2   1 SAM   0.6010 
 39 H2       9.2803     8.0397    22.7104 H     1 SAM   0.0600 
 40 N3       7.8350     7.3120    21.3320 N.2   1 SAM  -0.6610 
 41 C4       6.5900     6.8020    21.1820 C.2   1 SAM   0.5000 
 42 C5       5.7740     6.5350    22.2790 C.2   1 SAM   0.4500 
 43 C6       6.2520     6.8260    23.5510 C.2   1 SAM   0.6110 
 44 N6       5.5230     6.6170    24.6430 N.2   1 SAM  -0.2000 
 45 H62      5.9010     6.8397    25.5528 H     1 SAM   0.4000 
 46 H61      4.5912     6.2356    24.5628 H     1 SAM   0.4000 
 47 N7       4.6110     6.0160    21.8180 N.2   1 SAM  -0.6960 
 48 C8       4.6940     5.9320    20.4630 C.3   1 SAM   0.4551 
 49 H81      3.9017     6.5278    20.0097 H     1 SAM   0.0800 
 50 H82      4.5891     4.8922    20.1532 H     1 SAM   0.0800 
 51 N9       5.9220     6.4130    20.0630 N.pl3 1 SAM  -0.7882 
@<TRIPOS>BOND
  1   1   2  1   
  2   1   3  1   
  3   1   4  1   
  4   1   5  1   
  5   5   6  1   
  6   5   7  1   
  7   5   9  1   
  8   7   8  ar  
  9   7  36  ar  
 10   9  10  1   
 11   9  11  1   
 12   9  12  1   
 13  12  13  1   
 14  12  14  1   
 15  12  15  1   
 16  15  16  1   
 17  15  20  1   
 18  16  17  1   
 19  16  18  1   
 20  16  19  1   
 21  20  21  1   
 22  20  22  1   
 23  20  23  1   
 24  23  24  1   
 25  23  25  1   
 26  23  26  1   
 27  25  34  1   
 28  26  27  1   
 29  26  28  1   
 30  26  30  1   
 31  28  29  1   
 32  30  31  1   
 33  30  32  1   
 34  30  34  1   
 35  32  33  1   
 36  34  35  1   
 37  34  51  1   
 38  37  38  2   
 39  37  43  1   
 40  38  39  1   
 41  38  40  1   
 42  40  41  2   
 43  41  42  1   
 44  41  51  1   
 45  42  43  1   
 46  42  47  2   
 47  43  44  2   
 48  44  45  1   
 49  44  46  1   
 50  47  48  1   
 51  48  49  1   
 52  48  50  1   
 53  48  51  1   
@<TRIPOS>SUBSTRUCTURE
  1 SAM  25 GROUP 4 A **** 0

# MOE 2022.02 (io_trps.svl 2020.11)
