# created with PyMOL 2.5.0
@<TRIPOS>MOLECULE
6WK2
27 29 1                 
SMALL
USER_CHARGES
@<TRIPOS>ATOM
1	   N	4.478	9.062	16.730	N.3	1	SAM601	0.000	
2	  CA	3.956	8.325	15.582	C.3	1	SAM601	0.000	
3	   C	4.017	9.155	14.301	C.2	1	SAM601	0.000	
4	   O	4.557	10.267	14.265	O.co2	1	SAM601	0.000	
5	  CB	2.511	7.853	15.822	C.3	1	SAM601	0.000	
6	  CG	2.380	6.600	16.679	C.3	1	SAM601	0.000	
7	  SD	3.026	5.208	15.708	S.3	1	SAM601	0.000	
8	  CE	1.785	3.909	15.916	C.3	1	SAM601	0.000	
9	 C5'	4.295	4.481	16.781	C.3	1	SAM601	0.000	
10	 C4'	5.542	5.339	16.913	C.3	1	SAM601	0.000	
11	 O4'	5.328	6.431	17.797	O.3	1	SAM601	0.000	
12	 C3'	6.656	4.508	17.533	C.3	1	SAM601	0.000	
13	 O3'	7.314	3.769	16.524	O.3	1	SAM601	0.000	
14	 C2'	7.484	5.549	18.260	C.3	1	SAM601	0.000	
15	 O2'	8.286	6.293	17.371	O.3	1	SAM601	0.000	
16	 C1'	6.425	6.560	18.681	C.3	1	SAM601	0.000	
17	 OXT	3.528	8.706	13.252	O.co2	1	SAM601	0.000	
18	  N1	7.518	7.350	23.685	N.2	1	SAM601	0.000	
19	  C2	8.299	7.606	22.586	C.2	1	SAM601	0.000	
20	  N3	7.835	7.312	21.332	N.2	1	SAM601	0.000	
21	  C4	6.590	6.802	21.182	C.2	1	SAM601	0.000	
22	  C5	5.774	6.535	22.279	C.2	1	SAM601	0.000	
23	  C6	6.252	6.826	23.551	C.2	1	SAM601	0.000	
24	  N6	5.523	6.617	24.643	N.pl3	1	SAM601	0.000	
25	  N7	4.611	6.016	21.818	N.2	1	SAM601	0.000	
26	  C8	4.694	5.932	20.463	C.2	1	SAM601	0.000	
27	  N9	5.922	6.413	20.063	N.2	1	SAM601	0.000	
@<TRIPOS>BOND
1 1 2 1
2 2 3 1
3 2 5 1
4 3 4 ar
5 3 17 ar
6 5 6 1
7 6 7 1
8 7 8 1
9 7 9 1
10 9 10 1
11 10 11 1
12 10 12 1
13 11 16 1
14 12 13 1
15 12 14 1
16 14 15 1
17 14 16 1
18 16 27 1
19 18 19 ar
20 18 23 ar
21 19 20 ar
22 20 21 ar
23 21 22 ar
24 21 27 ar
25 22 23 ar
26 22 25 ar
27 23 24 1
28 25 26 ar
29 26 27 ar
@<TRIPOS>SUBSTRUCTURE
1	SAM601	1	GROUP	1 A	SAM
