# created with PyMOL 2.4.0
@<TRIPOS>MOLECULE
temp
50 52 1                 
SMALL
USER_CHARGES
@<TRIPOS>ATOM
1	   N	22.529	22.097	16.179	N.4	1	SAM1	0.000	
2	  CA	23.025	22.725	14.964	C.3	1	SAM1	0.000	
3	   C	22.919	21.769	13.779	C.2	1	SAM1	0.000	
4	   O	22.401	20.667	13.917	O.co2	1	SAM1	0.000	
5	  CB	24.474	23.191	15.138	C.3	1	SAM1	0.000	
6	  CG	24.587	24.529	15.848	C.3	1	SAM1	0.000	
7	  SD	23.937	25.812	14.753	S.3	1	SAM1	0.000	
8	  CE	25.155	27.140	14.874	C.3	1	SAM1	0.000	
9	 C5'	22.646	26.599	15.758	C.3	1	SAM1	0.000	
10	 C4'	21.390	25.767	15.998	C.3	1	SAM1	0.000	
11	 O4'	21.579	24.777	16.999	O.3	1	SAM1	0.000	
12	 C3'	20.287	26.671	16.522	C.3	1	SAM1	0.000	
13	 O3'	19.631	27.309	15.446	O.3	1	SAM1	0.000	
14	 C2'	19.436	25.718	17.339	C.3	1	SAM1	0.000	
15	 O2'	18.620	24.928	16.500	O.3	1	SAM1	0.000	
16	 C1'	20.471	24.736	17.880	C.3	1	SAM1	0.000	
17	 OXT	23.338	22.082	12.659	O.co2	1	SAM1	0.000	
18	  N1	19.462	24.377	23.014	N.2	1	SAM1	0.000	
19	  C2	18.657	24.034	21.955	C.2	1	SAM1	0.000	
20	  N3	19.094	24.215	20.668	N.2	1	SAM1	0.000	
21	  C4	20.330	24.713	20.423	C.2	1	SAM1	0.000	
22	  C5	21.163	25.068	21.472	C.2	1	SAM1	0.000	
23	  C6	20.723	24.891	22.781	C.2	1	SAM1	0.000	
24	  N6	21.471	25.217	23.828	N.pl3	1	SAM1	0.000	
25	  N7	22.302	25.567	20.937	N.2	1	SAM1	0.000	
26	  C8	22.202	25.527	19.586	C.2	1	SAM1	0.000	
27	  N9	20.970	25.000	19.252	N.2	1	SAM1	0.000	
28	  HA	22.404	23.599	14.764	 H	1	SAM1	0.000	
29	 HB1	24.930	23.281	14.152	 H	1	SAM1	0.000	
30	 HB2	25.012	22.443	15.720	 H	1	SAM1	0.000	
31	 HG1	25.632	24.736	16.079	 H	1	SAM1	0.000	
32	 HG2	24.009	24.506	16.772	 H	1	SAM1	0.000	
33	 HE1	26.050	26.864	14.316	 H	1	SAM1	0.000	
34	 HE2	25.414	27.301	15.920	 H	1	SAM1	0.000	
35	 HE3	24.736	28.056	14.458	 H	1	SAM1	0.000	
36	  H1	23.087	21.282	16.389	 H	1	SAM1	0.000	
37	  H2	21.567	21.821	16.046	 H	1	SAM1	0.000	
38	  H2	17.676	23.620	22.137	 H	1	SAM1	0.000	
39	  H3	22.589	22.752	16.945	 H	1	SAM1	0.000	
40	  H8	22.959	25.853	18.888	 H	1	SAM1	0.000	
41	 H1'	19.971	23.770	17.939	 H	1	SAM1	0.000	
42	 H2'	18.821	26.252	18.063	 H	1	SAM1	0.000	
43	 H2'	18.013	25.518	16.046	 H	1	SAM1	0.000	
44	 H3'	20.612	27.509	17.139	 H	1	SAM1	0.000	
45	 H3'	18.904	27.819	15.811	 H	1	SAM1	0.000	
46	 H4'	21.144	25.294	15.047	 H	1	SAM1	0.000	
47	 H61	22.392	25.607	23.689	 H	1	SAM1	0.000	
48	 H62	21.119	25.075	24.764	 H	1	SAM1	0.000	
49	H5'1	22.347	27.519	15.256	 H	1	SAM1	0.000	
50	H5'2	23.079	26.839	16.729	 H	1	SAM1	0.000	
@<TRIPOS>BOND
1 1 2 1
2 1 36 1
3 1 37 1
4 1 39 1
5 2 3 1
6 2 5 1
7 2 28 1
8 3 4 ar
9 3 17 ar
10 5 6 1
11 5 29 1
12 5 30 1
13 6 7 1
14 6 31 1
15 6 32 1
16 7 8 1
17 7 9 1
18 8 33 1
19 8 34 1
20 8 35 1
21 9 10 1
22 9 49 1
23 9 50 1
24 10 11 1
25 10 12 1
26 10 46 1
27 11 16 1
28 12 13 1
29 12 14 1
30 12 44 1
31 13 45 1
32 14 15 1
33 14 16 1
34 14 42 1
35 15 43 1
36 16 27 1
37 16 41 1
38 18 19 ar
39 18 23 ar
40 19 20 ar
41 19 38 1
42 20 21 ar
43 21 22 ar
44 21 27 ar
45 22 23 ar
46 22 25 ar
47 23 24 1
48 24 47 1
49 24 48 1
50 25 26 ar
51 26 27 ar
52 26 40 1
@<TRIPOS>SUBSTRUCTURE
1	SAM1	1	GROUP	1 D	SAM
