@<TRIPOS>MOLECULE
6INW.B
51 53 1 0 0 
SMALL
USER_CHARGES


@<TRIPOS>ATOM
  1 N       -1.3210    32.9200    85.9010 N.4   1 SAM  -0.8530 
  2 H1      -0.5309    33.5243    86.0762 H     1 SAM   0.4500 
  3 H2      -1.9476    32.9471    86.6927 H     1 SAM   0.4500 
  4 H3      -1.8089    33.2348    85.0746 H     1 SAM   0.4500 
  5 CA      -0.8520    31.5520    85.6980 C.3   1 SAM   0.3170 
  6 HA      -1.7308    30.9343    85.5128 H     1 SAM   0.0800 
  7 C       -0.1410    31.0000    86.9300 C.2   1 SAM   0.9060 
  8 O       -0.5760    30.0270    87.5520 O.co2 1 SAM  -0.9000 
  9 CB       0.0870    31.4920    84.5020 C.3   1 SAM  -0.1600 
 10 HB1      1.0546    31.1198    84.8385 H     1 SAM   0.0800 
 11 HB2      0.2043    32.4990    84.1017 H     1 SAM   0.0800 
 12 CG      -0.4200    30.5880    83.3950 C.3   1 SAM  -0.1525 
 13 HG1     -1.4312    30.8982    83.1317 H     1 SAM   0.0800 
 14 HG2     -0.4396    29.5637    83.7673 H     1 SAM   0.0800 
 15 SD       0.6010    30.6360    81.9030 S.3   1 SAM   0.9775 
 16 CE       2.0340    31.6030    82.4400 C.3   1 SAM  -0.2325 
 17 HE1      2.6685    30.9883    83.0785 H     1 SAM   0.0800 
 18 HE2      1.6949    32.4762    82.9974 H     1 SAM   0.0800 
 19 HE3      2.6015    31.9268    81.5675 H     1 SAM   0.0800 
 20 C5'     -0.3020    31.8240    80.8740 C.3   1 SAM  -0.1525 
 21 H5'1    -0.0207    31.6741    79.8316 H     1 SAM   0.0800 
 22 H5'2    -0.0323    32.8344    81.1814 H     1 SAM   0.0800 
 23 C4'     -1.8080    31.6530    81.0080 C.3   1 SAM   0.2000 
 24 H4'     -2.0411    31.7003    82.0717 H     1 SAM   0.0800 
 25 O4'     -2.4660    32.6680    80.2770 O.3   1 SAM  -0.5600 
 26 C3'     -2.2800    30.3200    80.4370 C.3   1 SAM   0.2000 
 27 H3'     -1.4592    29.6434    80.1993 H     1 SAM   0.0800 
 28 O3'     -3.1180    29.6990    81.3850 O.3   1 SAM  -0.6800 
 29 H3'     -3.4487    28.8876    80.9927 H     1 SAM   0.4000 
 30 C2'     -3.0880    30.6860    79.2130 C.3   1 SAM   0.2000 
 31 H2'     -2.5268    30.5951    78.2830 H     1 SAM   0.0800 
 32 O2'     -4.2000    29.8460    79.0490 O.3   1 SAM  -0.6800 
 33 H2'     -4.7238    29.8977    79.8519 H     1 SAM   0.4000 
 34 C1'     -3.5330    32.0960    79.5480 C.3   1 SAM   0.5691 
 35 H1'     -4.4633    32.0690    80.1153 H     1 SAM   0.0800 
 36 OXT      0.8930    31.5240    87.3340 O.co2 1 SAM  -0.9000 
 37 N1      -6.8460    35.5210    77.5070 N.2   1 SAM  -0.6610 
 38 C2      -6.8940    34.9210    78.7490 C.2   1 SAM   0.6010 
 39 H2      -7.6991    35.1516    79.4310 H     1 SAM   0.0600 
 40 N3      -5.9110    34.0260    79.1170 N.2   1 SAM  -0.6610 
 41 C4      -4.9110    33.7340    78.2520 C.2   1 SAM   0.5000 
 42 C5      -4.8480    34.3220    77.0000 C.2   1 SAM   0.4500 
 43 C6      -5.8280    35.2310    76.6270 C.2   1 SAM   0.6110 
 44 N6      -5.7930    35.8090    75.4280 N.2   1 SAM  -0.2000 
 45 H62     -6.5103    36.4695    75.1646 H     1 SAM   0.4000 
 46 H61     -5.0491    35.5870    74.7819 H     1 SAM   0.4000 
 47 N7      -3.7490    33.8460    76.3700 N.2   1 SAM  -0.6960 
 48 C8      -3.1190    32.9770    77.1920 C.3   1 SAM   0.4551 
 49 H81     -2.1084    33.3296    77.3981 H     1 SAM   0.0800 
 50 H82     -3.0724    31.9935    76.7244 H     1 SAM   0.0800 
 51 N9      -3.8320    32.9030    78.3590 N.pl3 1 SAM  -0.7882 
@<TRIPOS>BOND
  1   1   2  1   
  2   1   3  1   
  3   1   4  1   
  4   1   5  1   
  5   5   6  1   
  6   5   7  1   
  7   5   9  1   
  8   7   8  ar  
  9   7  36  ar  
 10   9  10  1   
 11   9  11  1   
 12   9  12  1   
 13  12  13  1   
 14  12  14  1   
 15  12  15  1   
 16  15  16  1   
 17  15  20  1   
 18  16  17  1   
 19  16  18  1   
 20  16  19  1   
 21  20  21  1   
 22  20  22  1   
 23  20  23  1   
 24  23  24  1   
 25  23  25  1   
 26  23  26  1   
 27  25  34  1   
 28  26  27  1   
 29  26  28  1   
 30  26  30  1   
 31  28  29  1   
 32  30  31  1   
 33  30  32  1   
 34  30  34  1   
 35  32  33  1   
 36  34  35  1   
 37  34  51  1   
 38  37  38  2   
 39  37  43  1   
 40  38  39  1   
 41  38  40  1   
 42  40  41  2   
 43  41  42  1   
 44  41  51  1   
 45  42  43  1   
 46  42  47  2   
 47  43  44  2   
 48  44  45  1   
 49  44  46  1   
 50  47  48  1   
 51  48  49  1   
 52  48  50  1   
 53  48  51  1   
@<TRIPOS>SUBSTRUCTURE
  1 SAM  25 GROUP 4 B **** 0

# MOE 2022.02 (io_trps.svl 2020.11)
