@<TRIPOS>MOLECULE
6INW.A
51 53 1 0 0 
SMALL
USER_CHARGES


@<TRIPOS>ATOM
  1 N       45.6810    12.7660    65.0540 N.4   1 SAM  -0.8530 
  2 H1      45.2532    12.1867    65.7622 H     1 SAM   0.4500 
  3 H2      46.6851    12.6676    65.0999 H     1 SAM   0.4500 
  4 H3      45.3559    12.4782    64.1421 H     1 SAM   0.4500 
  5 CA      45.3180    14.1610    65.2820 C.3   1 SAM   0.3170 
  6 HA      45.7948    14.7557    64.5028 H     1 SAM   0.0800 
  7 C       45.8190    14.6550    66.6320 C.2   1 SAM   0.9060 
  8 O       45.4610    14.0970    67.6670 O.co2 1 SAM  -0.9000 
  9 CB      43.8080    14.3360    65.2000 C.3   1 SAM  -0.1600 
 10 HB1     43.4938    15.0208    65.9876 H     1 SAM   0.0800 
 11 HB2     43.3364    13.3653    65.3531 H     1 SAM   0.0800 
 12 CG      43.3500    14.8920    63.8630 C.3   1 SAM  -0.1525 
 13 HG1     43.7954    14.2902    63.0708 H     1 SAM   0.0800 
 14 HG2     43.7028    15.9200    63.7803 H     1 SAM   0.0800 
 15 SD      41.5530    14.8870    63.6400 S.3   1 SAM   0.9775 
 16 CE      40.9610    14.0450    65.1310 C.3   1 SAM  -0.2325 
 17 HE1     41.0186    14.7261    65.9800 H     1 SAM   0.0800 
 18 HE2     41.5813    13.1698    65.3246 H     1 SAM   0.0800 
 19 HE3     39.9270    13.7325    64.9855 H     1 SAM   0.0800 
 20 C5'     41.3810    13.6110    62.3620 C.3   1 SAM  -0.1525 
 21 H5'1    40.4103    13.7256    61.8796 H     1 SAM   0.0800 
 22 H5'2    41.4383    12.6305    62.8346 H     1 SAM   0.0800 
 23 C4'     42.4740    13.7100    61.2990 C.3   1 SAM   0.2000 
 24 H4'     43.4200    13.6844    61.8399 H     1 SAM   0.0800 
 25 O4'     42.3810    12.6400    60.3750 O.3   1 SAM  -0.5600 
 26 C3'     42.3610    14.9940    60.4880 C.3   1 SAM   0.2000 
 27 H3'     41.6197    15.6871    60.8857 H     1 SAM   0.0800 
 28 O3'     43.6220    15.6240    60.4880 O.3   1 SAM  -0.6800 
 29 H3'     43.5564    16.4048    59.9333 H     1 SAM   0.4000 
 30 C2'     42.0100    14.5520    59.0860 C.3   1 SAM   0.2000 
 31 H2'     40.9457    14.6204    58.8611 H     1 SAM   0.0800 
 32 O2'     42.6230    15.3560    58.1080 O.3   1 SAM  -0.6800 
 33 H2'     43.5701    15.3298    58.2626 H     1 SAM   0.4000 
 34 C1'     42.5650    13.1410    59.0650 C.3   1 SAM   0.5691 
 35 H1'     43.6143    13.1558    58.7702 H     1 SAM   0.0800 
 36 OXT     46.5790    15.6190    66.7210 O.co2 1 SAM  -0.9000 
 37 N1      43.4340     9.5910    55.3880 N.2   1 SAM  -0.6610 
 38 C2      44.3530    10.2510    56.1740 C.2   1 SAM   0.6010 
 39 H2      45.4074    10.0466    56.0611 H     1 SAM   0.0600 
 40 N3      43.9240    11.1730    57.1050 N.2   1 SAM  -0.6610 
 41 C4      42.5980    11.4310    57.2410 C.2   1 SAM   0.5000 
 42 C5      41.6580    10.7810    56.4600 C.2   1 SAM   0.4500 
 43 C6      42.0870     9.8520    55.5230 C.2   1 SAM   0.6110 
 44 N6      41.2040     9.2140    54.7590 N.2   1 SAM  -0.2000 
 45 H62     41.5203     8.5384    54.0781 H     1 SAM   0.4000 
 46 H61     40.2174     9.4053    54.8600 H     1 SAM   0.4000 
 47 N7      40.4310    11.2320    56.8140 N.2   1 SAM  -0.6960 
 48 C8      40.5780    12.1490    57.8000 C.3   1 SAM   0.4551 
 49 H81     40.0500    11.8175    58.6941 H     1 SAM   0.0800 
 50 H82     40.1753    13.1083    57.4750 H     1 SAM   0.0800 
 51 N9      41.9170    12.2750    58.0710 N.pl3 1 SAM  -0.7882 
@<TRIPOS>BOND
  1   1   2  1   
  2   1   3  1   
  3   1   4  1   
  4   1   5  1   
  5   5   6  1   
  6   5   7  1   
  7   5   9  1   
  8   7   8  ar  
  9   7  36  ar  
 10   9  10  1   
 11   9  11  1   
 12   9  12  1   
 13  12  13  1   
 14  12  14  1   
 15  12  15  1   
 16  15  16  1   
 17  15  20  1   
 18  16  17  1   
 19  16  18  1   
 20  16  19  1   
 21  20  21  1   
 22  20  22  1   
 23  20  23  1   
 24  23  24  1   
 25  23  25  1   
 26  23  26  1   
 27  25  34  1   
 28  26  27  1   
 29  26  28  1   
 30  26  30  1   
 31  28  29  1   
 32  30  31  1   
 33  30  32  1   
 34  30  34  1   
 35  32  33  1   
 36  34  35  1   
 37  34  51  1   
 38  37  38  2   
 39  37  43  1   
 40  38  39  1   
 41  38  40  1   
 42  40  41  2   
 43  41  42  1   
 44  41  51  1   
 45  42  43  1   
 46  42  47  2   
 47  43  44  2   
 48  44  45  1   
 49  44  46  1   
 50  47  48  1   
 51  48  49  1   
 52  48  50  1   
 53  48  51  1   
@<TRIPOS>SUBSTRUCTURE
  1 SAM  25 GROUP 4 A **** 0

# MOE 2022.02 (io_trps.svl 2020.11)
