# created with PyMOL 2.5.0
@<TRIPOS>MOLECULE
6INW
27 29 1                 
SMALL
USER_CHARGES
@<TRIPOS>ATOM
1	   N	-1.321	32.920	85.901	N.3	1	SAM401	0.000	
2	  CA	-0.852	31.552	85.698	C.3	1	SAM401	0.000	
3	   C	-0.141	31.000	86.930	C.2	1	SAM401	0.000	
4	   O	-0.576	30.027	87.552	O.co2	1	SAM401	0.000	
5	  CB	0.087	31.492	84.502	C.3	1	SAM401	0.000	
6	  CG	-0.420	30.588	83.395	C.3	1	SAM401	0.000	
7	  SD	0.601	30.636	81.903	S.3	1	SAM401	0.000	
8	  CE	2.034	31.603	82.440	C.3	1	SAM401	0.000	
9	 C5'	-0.302	31.824	80.874	C.3	1	SAM401	0.000	
10	 C4'	-1.808	31.653	81.008	C.3	1	SAM401	0.000	
11	 O4'	-2.466	32.668	80.277	O.3	1	SAM401	0.000	
12	 C3'	-2.280	30.320	80.437	C.3	1	SAM401	0.000	
13	 O3'	-3.118	29.699	81.385	O.3	1	SAM401	0.000	
14	 C2'	-3.088	30.686	79.213	C.3	1	SAM401	0.000	
15	 O2'	-4.200	29.846	79.049	O.3	1	SAM401	0.000	
16	 C1'	-3.533	32.096	79.548	C.3	1	SAM401	0.000	
17	 OXT	0.893	31.524	87.334	O.co2	1	SAM401	0.000	
18	  N1	-6.846	35.521	77.507	N.2	1	SAM401	0.000	
19	  C2	-6.894	34.921	78.749	C.2	1	SAM401	0.000	
20	  N3	-5.911	34.026	79.117	N.2	1	SAM401	0.000	
21	  C4	-4.911	33.734	78.252	C.2	1	SAM401	0.000	
22	  C5	-4.848	34.322	77.000	C.2	1	SAM401	0.000	
23	  C6	-5.828	35.231	76.627	C.2	1	SAM401	0.000	
24	  N6	-5.793	35.809	75.428	N.pl3	1	SAM401	0.000	
25	  N7	-3.749	33.846	76.370	N.2	1	SAM401	0.000	
26	  C8	-3.119	32.977	77.192	C.2	1	SAM401	0.000	
27	  N9	-3.832	32.903	78.359	N.2	1	SAM401	0.000	
@<TRIPOS>BOND
1 1 2 1
2 2 3 1
3 2 5 1
4 3 4 ar
5 3 17 ar
6 5 6 1
7 6 7 1
8 7 8 1
9 7 9 1
10 9 10 1
11 10 11 1
12 10 12 1
13 11 16 1
14 12 13 1
15 12 14 1
16 14 15 1
17 14 16 1
18 16 27 1
19 18 19 ar
20 18 23 ar
21 19 20 ar
22 20 21 ar
23 21 22 ar
24 21 27 ar
25 22 23 ar
26 22 25 ar
27 23 24 1
28 25 26 ar
29 26 27 ar
@<TRIPOS>SUBSTRUCTURE
1	SAM401	1	GROUP	1 B	SAM
