# created with PyMOL 2.4.0
@<TRIPOS>MOLECULE
temp
50 52 1                 
SMALL
USER_CHARGES
@<TRIPOS>ATOM
1	   N	-1.321	32.920	85.901	N.4	1	SAM1	0.000	
2	  CA	-0.852	31.552	85.698	C.3	1	SAM1	0.000	
3	   C	-0.141	31.000	86.930	C.2	1	SAM1	0.000	
4	   O	-0.576	30.027	87.552	O.co2	1	SAM1	0.000	
5	  CB	0.087	31.492	84.502	C.3	1	SAM1	0.000	
6	  CG	-0.420	30.588	83.395	C.3	1	SAM1	0.000	
7	  SD	0.601	30.636	81.903	S.3	1	SAM1	0.000	
8	  CE	2.034	31.603	82.440	C.3	1	SAM1	0.000	
9	 C5'	-0.302	31.824	80.874	C.3	1	SAM1	0.000	
10	 C4'	-1.808	31.653	81.008	C.3	1	SAM1	0.000	
11	 O4'	-2.466	32.668	80.277	O.3	1	SAM1	0.000	
12	 C3'	-2.280	30.320	80.437	C.3	1	SAM1	0.000	
13	 O3'	-3.118	29.699	81.385	O.3	1	SAM1	0.000	
14	 C2'	-3.088	30.686	79.213	C.3	1	SAM1	0.000	
15	 O2'	-4.200	29.846	79.049	O.3	1	SAM1	0.000	
16	 C1'	-3.533	32.096	79.548	C.3	1	SAM1	0.000	
17	 OXT	0.893	31.524	87.334	O.co2	1	SAM1	0.000	
18	  N1	-6.846	35.521	77.507	N.2	1	SAM1	0.000	
19	  C2	-6.894	34.921	78.749	C.2	1	SAM1	0.000	
20	  N3	-5.911	34.026	79.117	N.2	1	SAM1	0.000	
21	  C4	-4.911	33.734	78.252	C.2	1	SAM1	0.000	
22	  C5	-4.848	34.322	77.000	C.2	1	SAM1	0.000	
23	  C6	-5.828	35.231	76.627	C.2	1	SAM1	0.000	
24	  N6	-5.793	35.809	75.428	N.pl3	1	SAM1	0.000	
25	  N7	-3.749	33.846	76.370	N.2	1	SAM1	0.000	
26	  C8	-3.119	32.977	77.192	C.2	1	SAM1	0.000	
27	  N9	-3.832	32.903	78.359	N.2	1	SAM1	0.000	
28	  HA	-1.731	30.934	85.513	 H	1	SAM1	0.000	
29	 HB1	1.055	31.120	84.839	 H	1	SAM1	0.000	
30	 HB2	0.204	32.499	84.102	 H	1	SAM1	0.000	
31	 HG1	-1.431	30.898	83.132	 H	1	SAM1	0.000	
32	 HG2	-0.440	29.564	83.767	 H	1	SAM1	0.000	
33	 HE1	2.668	30.988	83.078	 H	1	SAM1	0.000	
34	 HE2	1.695	32.476	82.997	 H	1	SAM1	0.000	
35	 HE3	2.602	31.927	81.567	 H	1	SAM1	0.000	
36	  H1	-0.531	33.524	86.076	 H	1	SAM1	0.000	
37	  H2	-1.948	32.947	86.693	 H	1	SAM1	0.000	
38	  H2	-7.699	35.152	79.431	 H	1	SAM1	0.000	
39	  H3	-1.809	33.235	85.075	 H	1	SAM1	0.000	
40	  H8	-2.212	32.436	76.968	 H	1	SAM1	0.000	
41	 H1'	-4.463	32.069	80.115	 H	1	SAM1	0.000	
42	 H2'	-2.527	30.595	78.283	 H	1	SAM1	0.000	
43	 H2'	-4.724	29.898	79.852	 H	1	SAM1	0.000	
44	 H3'	-1.459	29.643	80.199	 H	1	SAM1	0.000	
45	 H3'	-3.449	28.888	80.993	 H	1	SAM1	0.000	
46	 H4'	-2.041	31.700	82.072	 H	1	SAM1	0.000	
47	 H61	-5.049	35.587	74.782	 H	1	SAM1	0.000	
48	 H62	-6.510	36.470	75.165	 H	1	SAM1	0.000	
49	H5'1	-0.021	31.674	79.832	 H	1	SAM1	0.000	
50	H5'2	-0.032	32.834	81.181	 H	1	SAM1	0.000	
@<TRIPOS>BOND
1 1 2 1
2 1 36 1
3 1 37 1
4 1 39 1
5 2 3 1
6 2 5 1
7 2 28 1
8 3 4 ar
9 3 17 ar
10 5 6 1
11 5 29 1
12 5 30 1
13 6 7 1
14 6 31 1
15 6 32 1
16 7 8 1
17 7 9 1
18 8 33 1
19 8 34 1
20 8 35 1
21 9 10 1
22 9 49 1
23 9 50 1
24 10 11 1
25 10 12 1
26 10 46 1
27 11 16 1
28 12 13 1
29 12 14 1
30 12 44 1
31 13 45 1
32 14 15 1
33 14 16 1
34 14 42 1
35 15 43 1
36 16 27 1
37 16 41 1
38 18 19 ar
39 18 23 ar
40 19 20 ar
41 19 38 1
42 20 21 ar
43 21 22 ar
44 21 27 ar
45 22 23 ar
46 22 25 ar
47 23 24 1
48 24 47 1
49 24 48 1
50 25 26 ar
51 26 27 ar
52 26 40 1
@<TRIPOS>SUBSTRUCTURE
1	SAM1	1	GROUP	1 B	SAM
