# created with PyMOL 2.5.0
@<TRIPOS>MOLECULE
6INW
27 29 1                 
SMALL
USER_CHARGES
@<TRIPOS>ATOM
1	   N	45.681	12.766	65.054	N.3	1	SAM401	0.000	
2	  CA	45.318	14.161	65.282	C.3	1	SAM401	0.000	
3	   C	45.819	14.655	66.632	C.2	1	SAM401	0.000	
4	   O	45.461	14.097	67.667	O.co2	1	SAM401	0.000	
5	  CB	43.808	14.336	65.200	C.3	1	SAM401	0.000	
6	  CG	43.350	14.892	63.863	C.3	1	SAM401	0.000	
7	  SD	41.553	14.887	63.640	S.3	1	SAM401	0.000	
8	  CE	40.961	14.045	65.131	C.3	1	SAM401	0.000	
9	 C5'	41.381	13.611	62.362	C.3	1	SAM401	0.000	
10	 C4'	42.474	13.710	61.299	C.3	1	SAM401	0.000	
11	 O4'	42.381	12.640	60.375	O.3	1	SAM401	0.000	
12	 C3'	42.361	14.994	60.488	C.3	1	SAM401	0.000	
13	 O3'	43.622	15.624	60.488	O.3	1	SAM401	0.000	
14	 C2'	42.010	14.552	59.086	C.3	1	SAM401	0.000	
15	 O2'	42.623	15.356	58.108	O.3	1	SAM401	0.000	
16	 C1'	42.565	13.141	59.065	C.3	1	SAM401	0.000	
17	 OXT	46.579	15.619	66.721	O.co2	1	SAM401	0.000	
18	  N1	43.434	9.591	55.388	N.2	1	SAM401	0.000	
19	  C2	44.353	10.251	56.174	C.2	1	SAM401	0.000	
20	  N3	43.924	11.173	57.105	N.2	1	SAM401	0.000	
21	  C4	42.598	11.431	57.241	C.2	1	SAM401	0.000	
22	  C5	41.658	10.781	56.460	C.2	1	SAM401	0.000	
23	  C6	42.087	9.852	55.523	C.2	1	SAM401	0.000	
24	  N6	41.204	9.214	54.759	N.pl3	1	SAM401	0.000	
25	  N7	40.431	11.232	56.814	N.2	1	SAM401	0.000	
26	  C8	40.578	12.149	57.800	C.2	1	SAM401	0.000	
27	  N9	41.917	12.275	58.071	N.2	1	SAM401	0.000	
@<TRIPOS>BOND
1 1 2 1
2 2 3 1
3 2 5 1
4 3 4 ar
5 3 17 ar
6 5 6 1
7 6 7 1
8 7 8 1
9 7 9 1
10 9 10 1
11 10 11 1
12 10 12 1
13 11 16 1
14 12 13 1
15 12 14 1
16 14 15 1
17 14 16 1
18 16 27 1
19 18 19 ar
20 18 23 ar
21 19 20 ar
22 20 21 ar
23 21 22 ar
24 21 27 ar
25 22 23 ar
26 22 25 ar
27 23 24 1
28 25 26 ar
29 26 27 ar
@<TRIPOS>SUBSTRUCTURE
1	SAM401	1	GROUP	1 A	SAM
