# created with PyMOL 2.4.0
@<TRIPOS>MOLECULE
temp
50 52 1                 
SMALL
USER_CHARGES
@<TRIPOS>ATOM
1	   N	6.797	0.149	17.228	N.4	1	SAM1	0.000	
2	  CA	6.286	-0.252	18.553	C.3	1	SAM1	0.000	
3	   C	6.501	0.872	19.537	C.2	1	SAM1	0.000	
4	   O	6.316	0.714	20.728	O.co2	1	SAM1	0.000	
5	  CB	6.951	-1.557	18.998	C.3	1	SAM1	0.000	
6	  CG	8.473	-1.402	18.965	C.3	1	SAM1	0.000	
7	  SD	9.284	-2.718	19.934	S.3	1	SAM1	0.000	
8	  CE	10.798	-1.836	20.458	C.3	1	SAM1	0.000	
9	 C5'	9.891	-3.814	18.618	C.3	1	SAM1	0.000	
10	 C4'	8.706	-4.551	17.985	C.3	1	SAM1	0.000	
11	 O4'	9.167	-5.188	16.776	O.3	1	SAM1	0.000	
12	 C3'	8.150	-5.658	18.906	C.3	1	SAM1	0.000	
13	 O3'	6.733	-5.447	19.088	O.3	1	SAM1	0.000	
14	 C2'	8.453	-6.970	18.112	C.3	1	SAM1	0.000	
15	 O2'	7.420	-7.958	18.229	O.3	1	SAM1	0.000	
16	 C1'	8.480	-6.444	16.659	C.3	1	SAM1	0.000	
17	 OXT	6.822	1.968	19.134	O.co2	1	SAM1	0.000	
18	  N1	8.717	-8.446	11.872	N.2	1	SAM1	0.000	
19	  C2	7.771	-7.717	12.451	C.2	1	SAM1	0.000	
20	  N3	7.836	-7.276	13.708	N.2	1	SAM1	0.000	
21	  C4	8.907	-7.555	14.454	C.2	1	SAM1	0.000	
22	  C5	9.948	-8.330	13.890	C.2	1	SAM1	0.000	
23	  C6	9.835	-8.763	12.536	C.2	1	SAM1	0.000	
24	  N6	10.824	-9.523	11.929	N.pl3	1	SAM1	0.000	
25	  N7	10.884	-8.442	14.863	N.2	1	SAM1	0.000	
26	  C8	10.500	-7.806	15.942	C.2	1	SAM1	0.000	
27	  N9	9.271	-7.258	15.739	N.2	1	SAM1	0.000	
28	  HA	5.214	-0.442	18.501	 H	1	SAM1	0.000	
29	 HB1	6.655	-2.362	18.325	 H	1	SAM1	0.000	
30	 HB2	6.634	-1.797	20.013	 H	1	SAM1	0.000	
31	 HG1	8.742	-0.433	19.385	 H	1	SAM1	0.000	
32	 HG2	8.815	-1.458	17.931	 H	1	SAM1	0.000	
33	 HE1	10.553	-1.138	21.258	 H	1	SAM1	0.000	
34	 HE2	11.211	-1.288	19.611	 H	1	SAM1	0.000	
35	 HE3	11.533	-2.557	20.817	 H	1	SAM1	0.000	
36	  H1	7.790	0.322	17.289	 H	1	SAM1	0.000	
37	  H2	6.326	0.990	16.926	 H	1	SAM1	0.000	
38	  H2	6.896	-7.466	11.870	 H	1	SAM1	0.000	
39	  H3	6.624	-0.591	16.563	 H	1	SAM1	0.000	
40	  H8	11.072	-7.728	16.855	 H	1	SAM1	0.000	
41	 H1'	7.465	-6.421	16.262	 H	1	SAM1	0.000	
42	 H2'	9.357	-7.465	18.466	 H	1	SAM1	0.000	
43	 H2'	7.363	-8.210	19.154	 H	1	SAM1	0.000	
44	 H3'	8.586	-5.682	19.905	 H	1	SAM1	0.000	
45	 H3'	6.395	-6.180	19.608	 H	1	SAM1	0.000	
46	 H4'	7.917	-3.822	17.801	 H	1	SAM1	0.000	
47	 H61	11.651	-9.783	12.448	 H	1	SAM1	0.000	
48	 H62	10.718	-9.816	10.968	 H	1	SAM1	0.000	
49	H5'1	10.587	-4.539	19.040	 H	1	SAM1	0.000	
50	H5'2	10.400	-3.222	17.857	 H	1	SAM1	0.000	
@<TRIPOS>BOND
1 1 2 1
2 1 36 1
3 1 37 1
4 1 39 1
5 2 3 1
6 2 5 1
7 2 28 1
8 3 4 ar
9 3 17 ar
10 5 6 1
11 5 29 1
12 5 30 1
13 6 7 1
14 6 31 1
15 6 32 1
16 7 8 1
17 7 9 1
18 8 33 1
19 8 34 1
20 8 35 1
21 9 10 1
22 9 49 1
23 9 50 1
24 10 11 1
25 10 12 1
26 10 46 1
27 11 16 1
28 12 13 1
29 12 14 1
30 12 44 1
31 13 45 1
32 14 15 1
33 14 16 1
34 14 42 1
35 15 43 1
36 16 27 1
37 16 41 1
38 18 19 ar
39 18 23 ar
40 19 20 ar
41 19 38 1
42 20 21 ar
43 21 22 ar
44 21 27 ar
45 22 23 ar
46 22 25 ar
47 23 24 1
48 24 47 1
49 24 48 1
50 25 26 ar
51 26 27 ar
52 26 40 1
@<TRIPOS>SUBSTRUCTURE
1	SAM1	1	GROUP	1 A	SAM
