@<TRIPOS>MOLECULE
3BXO.B
51 53 1 0 0 
SMALL
USER_CHARGES


@<TRIPOS>ATOM
  1 N       21.1620    -2.7700    63.9100 N.4   1 SAM  -0.8530 
  2 H1      20.2018    -2.4824    64.0339 H     1 SAM   0.4500 
  3 H2      21.7768    -2.0136    64.1746 H     1 SAM   0.4500 
  4 H3      21.3499    -3.5752    64.4901 H     1 SAM   0.4500 
  5 CA      21.3930    -3.1200    62.4900 C.3   1 SAM   0.3170 
  6 HA      22.4385    -3.4201    62.4195 H     1 SAM   0.0800 
  7 C       21.1980    -1.9210    61.5920 C.2   1 SAM   0.9060 
  8 O       21.5090    -1.9750    60.4050 O.co2 1 SAM  -0.9000 
  9 CB      20.6070    -4.3550    62.0110 C.3   1 SAM  -0.1600 
 10 HB1     20.4988    -5.0420    62.8503 H     1 SAM   0.0800 
 11 HB2     21.1751    -4.8388    61.2164 H     1 SAM   0.0800 
 12 CG      19.2220    -4.0230    61.4790 C.3   1 SAM  -0.1525 
 13 HG1     19.2924    -3.1770    60.7954 H     1 SAM   0.0800 
 14 HG2     18.5692    -3.7633    62.3124 H     1 SAM   0.0800 
 15 SD      18.5250    -5.4580    60.5920 S.3   1 SAM   0.9775 
 16 CE      16.9770    -4.6110    60.1710 C.3   1 SAM  -0.2325 
 17 HE1     17.1612    -3.8938    59.3711 H     1 SAM   0.0800 
 18 HE2     16.5991    -4.0870    61.0489 H     1 SAM   0.0800 
 19 HE3     16.2406    -5.3433    59.8400 H     1 SAM   0.0800 
 20 C5'     17.9110    -6.5550    61.9140 C.3   1 SAM  -0.1525 
 21 H5'1    17.0764    -7.1427    61.5318 H     1 SAM   0.0800 
 22 H5'2    17.5733    -5.9480    62.7540 H     1 SAM   0.0800 
 23 C4'     19.0240    -7.5100    62.3950 C.3   1 SAM   0.2000 
 24 H4'     19.8459    -6.8793    62.7339 H     1 SAM   0.0800 
 25 O4'     18.4770    -8.3630    63.4070 O.3   1 SAM  -0.5600 
 26 C3'     19.5360    -8.4740    61.2800 C.3   1 SAM   0.2000 
 27 H3'     19.0364    -8.3415    60.3203 H     1 SAM   0.0800 
 28 O3'     20.9360    -8.2190    61.0730 O.3   1 SAM  -0.6800 
 29 H3'     21.2530    -8.8503    60.4230 H     1 SAM   0.4000 
 30 C2'     19.2740    -9.9240    61.8290 C.3   1 SAM   0.2000 
 31 H2'     18.4163   -10.4022    61.3560 H     1 SAM   0.0800 
 32 O2'     20.3880   -10.8270    61.6450 O.3   1 SAM  -0.6800 
 33 H2'     20.1611   -11.6580    62.0688 H     1 SAM   0.4000 
 34 C1'     19.2300    -9.6010    63.3390 C.3   1 SAM   0.5691 
 35 H1'     20.2551    -9.5926    63.7095 H     1 SAM   0.0800 
 36 OXT     20.8020    -0.8700    62.0600 O.co2 1 SAM  -0.9000 
 37 N1      19.1930   -12.1460    67.8190 N.2   1 SAM  -0.6610 
 38 C2      20.1590   -11.3790    67.3200 C.2   1 SAM   0.6010 
 39 H2      21.0543   -11.2293    67.9051 H     1 SAM   0.0600 
 40 N3      20.0700   -10.7940    66.1420 N.2   1 SAM  -0.6610 
 41 C4      18.9410   -10.9700    65.4130 C.2   1 SAM   0.5000 
 42 C5      17.8920   -11.7940    65.9010 C.2   1 SAM   0.4500 
 43 C6      18.0550   -12.3960    67.1710 C.2   1 SAM   0.6110 
 44 N6      17.0570   -13.2410    67.7040 N.2   1 SAM  -0.2000 
 45 H62     17.1858   -13.6645    68.6118 H     1 SAM   0.4000 
 46 H61     16.2144   -13.4219    67.1774 H     1 SAM   0.4000 
 47 N7      16.8960   -11.8090    64.9570 N.2   1 SAM  -0.6960 
 48 C8      17.2540   -11.0420    63.9500 C.3   1 SAM   0.4551 
 49 H81     16.5511   -10.2142    63.8564 H     1 SAM   0.0800 
 50 H82     17.2517   -11.6264    63.0299 H     1 SAM   0.0800 
 51 N9      18.5120   -10.5490    64.1740 N.pl3 1 SAM  -0.7882 
@<TRIPOS>BOND
  1   1   2  1   
  2   1   3  1   
  3   1   4  1   
  4   1   5  1   
  5   5   6  1   
  6   5   7  1   
  7   5   9  1   
  8   7   8  ar  
  9   7  36  ar  
 10   9  10  1   
 11   9  11  1   
 12   9  12  1   
 13  12  13  1   
 14  12  14  1   
 15  12  15  1   
 16  15  16  1   
 17  15  20  1   
 18  16  17  1   
 19  16  18  1   
 20  16  19  1   
 21  20  21  1   
 22  20  22  1   
 23  20  23  1   
 24  23  24  1   
 25  23  25  1   
 26  23  26  1   
 27  25  34  1   
 28  26  27  1   
 29  26  28  1   
 30  26  30  1   
 31  28  29  1   
 32  30  31  1   
 33  30  32  1   
 34  30  34  1   
 35  32  33  1   
 36  34  35  1   
 37  34  51  1   
 38  37  38  2   
 39  37  43  1   
 40  38  39  1   
 41  38  40  1   
 42  40  41  2   
 43  41  42  1   
 44  41  51  1   
 45  42  43  1   
 46  42  47  2   
 47  43  44  2   
 48  44  45  1   
 49  44  46  1   
 50  47  48  1   
 51  48  49  1   
 52  48  50  1   
 53  48  51  1   
@<TRIPOS>SUBSTRUCTURE
  1 SAM  25 GROUP 4 B **** 0

# MOE 2022.02 (io_trps.svl 2020.11)
