# created with PyMOL 2.4.0
@<TRIPOS>MOLECULE
temp
50 52 1                 
SMALL
USER_CHARGES
@<TRIPOS>ATOM
1	   N	21.162	-2.770	63.910	N.4	1	SAM1	0.000	
2	  CA	21.393	-3.120	62.490	C.3	1	SAM1	0.000	
3	   C	21.198	-1.921	61.592	C.2	1	SAM1	0.000	
4	   O	21.509	-1.975	60.405	O.co2	1	SAM1	0.000	
5	  CB	20.607	-4.355	62.011	C.3	1	SAM1	0.000	
6	  CG	19.222	-4.023	61.479	C.3	1	SAM1	0.000	
7	  SD	18.525	-5.458	60.592	S.3	1	SAM1	0.000	
8	  CE	16.977	-4.611	60.171	C.3	1	SAM1	0.000	
9	 C5'	17.911	-6.555	61.914	C.3	1	SAM1	0.000	
10	 C4'	19.024	-7.510	62.395	C.3	1	SAM1	0.000	
11	 O4'	18.477	-8.363	63.407	O.3	1	SAM1	0.000	
12	 C3'	19.536	-8.474	61.280	C.3	1	SAM1	0.000	
13	 O3'	20.936	-8.219	61.073	O.3	1	SAM1	0.000	
14	 C2'	19.274	-9.924	61.829	C.3	1	SAM1	0.000	
15	 O2'	20.388	-10.827	61.645	O.3	1	SAM1	0.000	
16	 C1'	19.230	-9.601	63.339	C.3	1	SAM1	0.000	
17	 OXT	20.802	-0.870	62.060	O.co2	1	SAM1	0.000	
18	  N1	19.193	-12.146	67.819	N.2	1	SAM1	0.000	
19	  C2	20.159	-11.379	67.320	C.2	1	SAM1	0.000	
20	  N3	20.070	-10.794	66.142	N.2	1	SAM1	0.000	
21	  C4	18.941	-10.970	65.413	C.2	1	SAM1	0.000	
22	  C5	17.892	-11.794	65.901	C.2	1	SAM1	0.000	
23	  C6	18.055	-12.396	67.171	C.2	1	SAM1	0.000	
24	  N6	17.057	-13.241	67.704	N.pl3	1	SAM1	0.000	
25	  N7	16.896	-11.809	64.957	N.2	1	SAM1	0.000	
26	  C8	17.254	-11.042	63.950	C.2	1	SAM1	0.000	
27	  N9	18.512	-10.549	64.174	N.2	1	SAM1	0.000	
28	  HA	22.438	-3.420	62.419	 H	1	SAM1	0.000	
29	 HB1	20.499	-5.042	62.850	 H	1	SAM1	0.000	
30	 HB2	21.175	-4.839	61.216	 H	1	SAM1	0.000	
31	 HG1	19.292	-3.177	60.795	 H	1	SAM1	0.000	
32	 HG2	18.569	-3.763	62.312	 H	1	SAM1	0.000	
33	 HE1	17.161	-3.894	59.371	 H	1	SAM1	0.000	
34	 HE2	16.599	-4.087	61.049	 H	1	SAM1	0.000	
35	 HE3	16.241	-5.343	59.840	 H	1	SAM1	0.000	
36	  H1	20.202	-2.482	64.034	 H	1	SAM1	0.000	
37	  H2	21.777	-2.014	64.175	 H	1	SAM1	0.000	
38	  H2	21.054	-11.229	67.905	 H	1	SAM1	0.000	
39	  H3	21.350	-3.575	64.490	 H	1	SAM1	0.000	
40	  H8	16.649	-10.833	63.080	 H	1	SAM1	0.000	
41	 H1'	20.255	-9.593	63.709	 H	1	SAM1	0.000	
42	 H2'	18.416	-10.402	61.356	 H	1	SAM1	0.000	
43	 H2'	20.516	-10.941	60.700	 H	1	SAM1	0.000	
44	 H3'	19.036	-8.342	60.320	 H	1	SAM1	0.000	
45	 H3'	21.253	-8.850	60.423	 H	1	SAM1	0.000	
46	 H4'	19.846	-6.879	62.734	 H	1	SAM1	0.000	
47	 H61	16.214	-13.422	67.177	 H	1	SAM1	0.000	
48	 H62	17.186	-13.665	68.612	 H	1	SAM1	0.000	
49	H5'1	17.076	-7.143	61.532	 H	1	SAM1	0.000	
50	H5'2	17.573	-5.948	62.754	 H	1	SAM1	0.000	
@<TRIPOS>BOND
1 1 2 1
2 1 36 1
3 1 37 1
4 1 39 1
5 2 3 1
6 2 5 1
7 2 28 1
8 3 4 ar
9 3 17 ar
10 5 6 1
11 5 29 1
12 5 30 1
13 6 7 1
14 6 31 1
15 6 32 1
16 7 8 1
17 7 9 1
18 8 33 1
19 8 34 1
20 8 35 1
21 9 10 1
22 9 49 1
23 9 50 1
24 10 11 1
25 10 12 1
26 10 46 1
27 11 16 1
28 12 13 1
29 12 14 1
30 12 44 1
31 13 45 1
32 14 15 1
33 14 16 1
34 14 42 1
35 15 43 1
36 16 27 1
37 16 41 1
38 18 19 ar
39 18 23 ar
40 19 20 ar
41 19 38 1
42 20 21 ar
43 21 22 ar
44 21 27 ar
45 22 23 ar
46 22 25 ar
47 23 24 1
48 24 47 1
49 24 48 1
50 25 26 ar
51 26 27 ar
52 26 40 1
@<TRIPOS>SUBSTRUCTURE
1	SAM1	1	GROUP	1 B	SAM
