# created with PyMOL 2.5.0
@<TRIPOS>MOLECULE
3BXO
27 29 1                 
SMALL
USER_CHARGES
@<TRIPOS>ATOM
1	   N	6.797	0.149	17.228	N.3	1	SAM238	0.000	
2	  CA	6.286	-0.252	18.553	C.3	1	SAM238	0.000	
3	   C	6.501	0.872	19.537	C.2	1	SAM238	0.000	
4	   O	6.316	0.714	20.728	O.co2	1	SAM238	0.000	
5	  CB	6.951	-1.557	18.998	C.3	1	SAM238	0.000	
6	  CG	8.473	-1.402	18.965	C.3	1	SAM238	0.000	
7	  SD	9.284	-2.718	19.934	S.3	1	SAM238	0.000	
8	  CE	10.798	-1.836	20.458	C.3	1	SAM238	0.000	
9	 C5'	9.891	-3.814	18.618	C.3	1	SAM238	0.000	
10	 C4'	8.706	-4.551	17.985	C.3	1	SAM238	0.000	
11	 O4'	9.167	-5.188	16.776	O.3	1	SAM238	0.000	
12	 C3'	8.150	-5.658	18.906	C.3	1	SAM238	0.000	
13	 O3'	6.733	-5.447	19.088	O.3	1	SAM238	0.000	
14	 C2'	8.453	-6.970	18.112	C.3	1	SAM238	0.000	
15	 O2'	7.420	-7.958	18.229	O.3	1	SAM238	0.000	
16	 C1'	8.480	-6.444	16.659	C.3	1	SAM238	0.000	
17	 OXT	6.822	1.968	19.134	O.co2	1	SAM238	0.000	
18	  N1	8.717	-8.446	11.872	N.2	1	SAM238	0.000	
19	  C2	7.771	-7.717	12.451	C.2	1	SAM238	0.000	
20	  N3	7.836	-7.276	13.708	N.2	1	SAM238	0.000	
21	  C4	8.907	-7.555	14.454	C.2	1	SAM238	0.000	
22	  C5	9.948	-8.330	13.890	C.2	1	SAM238	0.000	
23	  C6	9.835	-8.763	12.536	C.2	1	SAM238	0.000	
24	  N6	10.824	-9.523	11.929	N.pl3	1	SAM238	0.000	
25	  N7	10.884	-8.442	14.863	N.2	1	SAM238	0.000	
26	  C8	10.500	-7.806	15.942	C.2	1	SAM238	0.000	
27	  N9	9.271	-7.258	15.739	N.2	1	SAM238	0.000	
@<TRIPOS>BOND
1 1 2 1
2 2 3 1
3 2 5 1
4 3 4 ar
5 3 17 ar
6 5 6 1
7 6 7 1
8 7 8 1
9 7 9 1
10 9 10 1
11 10 11 1
12 10 12 1
13 11 16 1
14 12 13 1
15 12 14 1
16 14 15 1
17 14 16 1
18 16 27 1
19 18 19 ar
20 18 23 ar
21 19 20 ar
22 20 21 ar
23 21 22 ar
24 21 27 ar
25 22 23 ar
26 22 25 ar
27 23 24 1
28 25 26 ar
29 26 27 ar
@<TRIPOS>SUBSTRUCTURE
1	SAM238	1	GROUP	1 A	SAM
