# created with PyMOL 2.5.0
@<TRIPOS>MOLECULE
3BXO
27 29 1                 
SMALL
USER_CHARGES
@<TRIPOS>ATOM
1	   N	21.162	-2.770	63.910	N.3	1	SAM238	0.000	
2	  CA	21.393	-3.120	62.490	C.3	1	SAM238	0.000	
3	   C	21.198	-1.921	61.592	C.2	1	SAM238	0.000	
4	   O	21.509	-1.975	60.405	O.co2	1	SAM238	0.000	
5	  CB	20.607	-4.355	62.011	C.3	1	SAM238	0.000	
6	  CG	19.222	-4.023	61.479	C.3	1	SAM238	0.000	
7	  SD	18.525	-5.458	60.592	S.3	1	SAM238	0.000	
8	  CE	16.977	-4.611	60.171	C.3	1	SAM238	0.000	
9	 C5'	17.911	-6.555	61.914	C.3	1	SAM238	0.000	
10	 C4'	19.024	-7.510	62.395	C.3	1	SAM238	0.000	
11	 O4'	18.477	-8.363	63.407	O.3	1	SAM238	0.000	
12	 C3'	19.536	-8.474	61.280	C.3	1	SAM238	0.000	
13	 O3'	20.936	-8.219	61.073	O.3	1	SAM238	0.000	
14	 C2'	19.274	-9.924	61.829	C.3	1	SAM238	0.000	
15	 O2'	20.388	-10.827	61.645	O.3	1	SAM238	0.000	
16	 C1'	19.230	-9.601	63.339	C.3	1	SAM238	0.000	
17	 OXT	20.802	-0.870	62.060	O.co2	1	SAM238	0.000	
18	  N1	19.193	-12.146	67.819	N.2	1	SAM238	0.000	
19	  C2	20.159	-11.379	67.320	C.2	1	SAM238	0.000	
20	  N3	20.070	-10.794	66.142	N.2	1	SAM238	0.000	
21	  C4	18.941	-10.970	65.413	C.2	1	SAM238	0.000	
22	  C5	17.892	-11.794	65.901	C.2	1	SAM238	0.000	
23	  C6	18.055	-12.396	67.171	C.2	1	SAM238	0.000	
24	  N6	17.057	-13.241	67.704	N.pl3	1	SAM238	0.000	
25	  N7	16.896	-11.809	64.957	N.2	1	SAM238	0.000	
26	  C8	17.254	-11.042	63.950	C.2	1	SAM238	0.000	
27	  N9	18.512	-10.549	64.174	N.2	1	SAM238	0.000	
@<TRIPOS>BOND
1 1 2 1
2 2 3 1
3 2 5 1
4 3 4 ar
5 3 17 ar
6 5 6 1
7 6 7 1
8 7 8 1
9 7 9 1
10 9 10 1
11 10 11 1
12 10 12 1
13 11 16 1
14 12 13 1
15 12 14 1
16 14 15 1
17 14 16 1
18 16 27 1
19 18 19 ar
20 18 23 ar
21 19 20 ar
22 20 21 ar
23 21 22 ar
24 21 27 ar
25 22 23 ar
26 22 25 ar
27 23 24 1
28 25 26 ar
29 26 27 ar
@<TRIPOS>SUBSTRUCTURE
1	SAM238	1	GROUP	1 B	SAM
