@<TRIPOS>MOLECULE
3BXO.A
51 53 1 0 0 
SMALL
USER_CHARGES


@<TRIPOS>ATOM
  1 N        6.7970     0.1490    17.2280 N.4   1 SAM  -0.8530 
  2 H1       7.7901     0.3225    17.2886 H     1 SAM   0.4500 
  3 H2       6.3261     0.9899    16.9259 H     1 SAM   0.4500 
  4 H3       6.6245    -0.5910    16.5626 H     1 SAM   0.4500 
  5 CA       6.2860    -0.2520    18.5530 C.3   1 SAM   0.3170 
  6 HA       5.2140    -0.4424    18.5010 H     1 SAM   0.0800 
  7 C        6.5010     0.8720    19.5370 C.2   1 SAM   0.9060 
  8 O        6.3160     0.7140    20.7280 O.co2 1 SAM  -0.9000 
  9 CB       6.9510    -1.5570    18.9980 C.3   1 SAM  -0.1600 
 10 HB1      6.6547    -2.3617    18.3251 H     1 SAM   0.0800 
 11 HB2      6.6338    -1.7968    20.0129 H     1 SAM   0.0800 
 12 CG       8.4730    -1.4020    18.9650 C.3   1 SAM  -0.1525 
 13 HG1      8.7420    -0.4327    19.3848 H     1 SAM   0.0800 
 14 HG2      8.8149    -1.4578    17.9315 H     1 SAM   0.0800 
 15 SD       9.2840    -2.7180    19.9340 S.3   1 SAM   0.9775 
 16 CE      10.7980    -1.8360    20.4580 C.3   1 SAM  -0.2325 
 17 HE1     10.5531    -1.1378    21.2584 H     1 SAM   0.0800 
 18 HE2     11.2106    -1.2876    19.6111 H     1 SAM   0.0800 
 19 HE3     11.5327    -2.5569    20.8167 H     1 SAM   0.0800 
 20 C5'      9.8910    -3.8140    18.6180 C.3   1 SAM  -0.1525 
 21 H5'1    10.5870    -4.5389    19.0402 H     1 SAM   0.0800 
 22 H5'2    10.3999    -3.2221    17.8572 H     1 SAM   0.0800 
 23 C4'      8.7060    -4.5510    17.9850 C.3   1 SAM   0.2000 
 24 H4'      7.9174    -3.8215    17.8005 H     1 SAM   0.0800 
 25 O4'      9.1670    -5.1880    16.7760 O.3   1 SAM  -0.5600 
 26 C3'      8.1500    -5.6580    18.9060 C.3   1 SAM   0.2000 
 27 H3'      8.5860    -5.6824    19.9047 H     1 SAM   0.0800 
 28 O3'      6.7330    -5.4470    19.0880 O.3   1 SAM  -0.6800 
 29 H3'      6.3949    -6.1796    19.6082 H     1 SAM   0.4000 
 30 C2'      8.4530    -6.9700    18.1120 C.3   1 SAM   0.2000 
 31 H2'      9.3574    -7.4650    18.4657 H     1 SAM   0.0800 
 32 O2'      7.4200    -7.9580    18.2290 O.3   1 SAM  -0.6800 
 33 H2'      7.6687    -8.7046    17.6791 H     1 SAM   0.4000 
 34 C1'      8.4800    -6.4440    16.6590 C.3   1 SAM   0.5691 
 35 H1'      7.4651    -6.4207    16.2621 H     1 SAM   0.0800 
 36 OXT      6.8220     1.9680    19.1340 O.co2 1 SAM  -0.9000 
 37 N1       8.7170    -8.4460    11.8720 N.2   1 SAM  -0.6610 
 38 C2       7.7710    -7.7170    12.4510 C.2   1 SAM   0.6010 
 39 H2       6.8963    -7.4659    11.8695 H     1 SAM   0.0600 
 40 N3       7.8360    -7.2760    13.7080 N.2   1 SAM  -0.6610 
 41 C4       8.9070    -7.5550    14.4540 C.2   1 SAM   0.5000 
 42 C5       9.9480    -8.3300    13.8900 C.2   1 SAM   0.4500 
 43 C6       9.8350    -8.7630    12.5360 C.2   1 SAM   0.6110 
 44 N6      10.8240    -9.5230    11.9290 N.2   1 SAM  -0.2000 
 45 H62     10.7176    -9.8159    10.9683 H     1 SAM   0.4000 
 46 H61     11.6505    -9.7834    12.4477 H     1 SAM   0.4000 
 47 N7      10.8840    -8.4420    14.8630 N.2   1 SAM  -0.6960 
 48 C8      10.5000    -7.8060    15.9420 C.3   1 SAM   0.4551 
 49 H81     11.2155    -7.0162    16.1709 H     1 SAM   0.0800 
 50 H82     10.4514    -8.5053    16.7767 H     1 SAM   0.0800 
 51 N9       9.2710    -7.2580    15.7390 N.pl3 1 SAM  -0.7882 
@<TRIPOS>BOND
  1   1   2  1   
  2   1   3  1   
  3   1   4  1   
  4   1   5  1   
  5   5   6  1   
  6   5   7  1   
  7   5   9  1   
  8   7   8  ar  
  9   7  36  ar  
 10   9  10  1   
 11   9  11  1   
 12   9  12  1   
 13  12  13  1   
 14  12  14  1   
 15  12  15  1   
 16  15  16  1   
 17  15  20  1   
 18  16  17  1   
 19  16  18  1   
 20  16  19  1   
 21  20  21  1   
 22  20  22  1   
 23  20  23  1   
 24  23  24  1   
 25  23  25  1   
 26  23  26  1   
 27  25  34  1   
 28  26  27  1   
 29  26  28  1   
 30  26  30  1   
 31  28  29  1   
 32  30  31  1   
 33  30  32  1   
 34  30  34  1   
 35  32  33  1   
 36  34  35  1   
 37  34  51  1   
 38  37  38  2   
 39  37  43  1   
 40  38  39  1   
 41  38  40  1   
 42  40  41  2   
 43  41  42  1   
 44  41  51  1   
 45  42  43  1   
 46  42  47  2   
 47  43  44  2   
 48  44  45  1   
 49  44  46  1   
 50  47  48  1   
 51  48  49  1   
 52  48  50  1   
 53  48  51  1   
@<TRIPOS>SUBSTRUCTURE
  1 SAM  25 GROUP 4 A **** 0

# MOE 2022.02 (io_trps.svl 2020.11)
