@<TRIPOS>MOLECULE
3BXO.A
47 49 1 0 0 
SMALL
USER_CHARGES


@<TRIPOS>ATOM
  1 PA      17.1060     2.0330    27.6870 P.3   1 UPP   1.4424 
  2 PB      14.9660     1.8510    25.7750 P.3   1 UPP   1.4424 
  3 C6'     15.2740    -0.9860    23.4060 C.ar  1 UPP  -0.1500 
  4 H6'     15.9937    -1.5521    23.9787 H     1 UPP   0.1500 
  5 C5'     15.0650    -1.3180    22.0880 C.ar  1 UPP  -0.1500 
  6 H5'     15.6333    -2.1206    21.6416 H     1 UPP   0.1500 
  7 O5'     18.6860     1.9160    27.5390 O.3   1 UPP  -0.5512 
  8 C4'     14.1360    -0.6350    21.3310 C.ar  1 UPP  -0.1500 
  9 H4'     13.9665    -0.8918    20.2957 H     1 UPP   0.1500 
 10 O4'     20.4060     3.3200    24.6320 O.3   1 UPP  -0.5600 
 11 C3'     13.4310     0.3830    21.9320 C.ar  1 UPP  -0.1500 
 12 H3'     12.6998     0.9334    21.3586 H     1 UPP   0.1500 
 13 O3'     21.0710     0.3040    24.9750 O.3   1 UPP  -0.6800 
 14 H3'     20.2283    -0.1539    25.0181 H     1 UPP   0.4000 
 15 C2'     13.6440     0.7130    23.2600 C.ar  1 UPP  -0.1500 
 16 H2'     13.0603     1.5022    23.7103 H     1 UPP   0.1500 
 17 O2'     23.4430     1.4920    25.3830 O.3   1 UPP  -0.6800 
 18 H2'     23.2412     1.0314    24.5652 H     1 UPP   0.4000 
 19 C1'     14.5940     0.0480    24.0230 C.ar  1 UPP   0.0825 
 20 C1B     21.8170     3.0090    24.4680 C.3   1 UPP   0.5001 
 21 H1B     22.0289     2.3420    23.6323 H     1 UPP   0.0800 
 22 N1      22.4980     4.2510    24.2050 N.am  1 UPP  -0.4691 
 23 O1A     16.6660     0.7110    28.4800 O.co2 1 UPP  -0.9500 
 24 O1B     13.8800     2.1840    26.9130 O.co2 1 UPP  -0.9500 
 25 C2      23.3600     4.2870    23.1640 C.2   1 UPP   0.6900 
 26 C2B     22.2850     2.2870    25.7350 C.3   1 UPP   0.2000 
 27 H2B     22.5703     2.8886    26.5980 H     1 UPP   0.0800 
 28 O2      23.6040     3.3000    22.4870 O.2   1 UPP  -0.5700 
 29 O2A     16.7430     3.3210    28.5460 O.co2 1 UPP  -0.9500 
 30 O2B     14.6580     2.7600    24.5150 O.co2 1 UPP  -0.9500 
 31 C3B     21.0310     1.3860    25.9360 C.3   1 UPP   0.2000 
 32 H3B     20.9611     0.9860    26.9475 H     1 UPP   0.0800 
 33 N3      23.9590     5.4210    22.8580 N.am  1 UPP  -0.4900 
 34 H3      24.5957     5.4583    22.0748 H     1 UPP   0.3700 
 35 O3A     16.5010     2.1930    26.1730 O.3   1 UPP  -0.5424 
 36 O3B     14.8450     0.2980    25.3570 O.3   1 UPP  -0.3537 
 37 C4      23.7250     6.5300    23.5860 C.2   1 UPP   0.6156 
 38 C4B     19.8430     2.3100    25.5080 C.3   1 UPP   0.2000 
 39 H4B     19.0954     1.6885    25.0152 H     1 UPP   0.0800 
 40 O4      24.2970     7.5560    23.2680 O.2   1 UPP  -0.5700 
 41 C5      22.8240     6.5110    24.6780 C.2   1 UPP  -0.1356 
 42 H5      22.6472     7.3963    25.2708 H     1 UPP   0.1500 
 43 C5B     19.0560     2.9520    26.6500 C.3   1 UPP   0.1200 
 44 H5B1    19.6777     3.6830    27.1669 H     1 UPP   0.0800 
 45 H5B2    18.1654     3.4441    26.2591 H     1 UPP   0.0800 
 46 C6      22.1950     5.3530    24.9530 C.2   1 UPP  -0.0410 
 47 H6      21.4663     5.2965    25.7481 H     1 UPP   0.1500 
@<TRIPOS>BOND
  1   1   7  1   
  2   1  23  ar  
  3   1  29  ar  
  4   1  35  1   
  5   2  24  ar  
  6   2  30  ar  
  7   2  35  1   
  8   2  36  1   
  9   3   4  1   
 10   3   5  ar  
 11   3  19  ar  
 12   5   6  1   
 13   5   8  ar  
 14   7  43  1   
 15   8   9  1   
 16   8  11  ar  
 17  10  20  1   
 18  10  38  1   
 19  11  12  1   
 20  11  15  ar  
 21  13  14  1   
 22  13  31  1   
 23  15  16  1   
 24  15  19  ar  
 25  17  18  1   
 26  17  26  1   
 27  19  36  1   
 28  20  21  1   
 29  20  22  1   
 30  20  26  1   
 31  22  25  am  
 32  22  46  1   
 33  25  28  2   
 34  25  33  am  
 35  26  27  1   
 36  26  31  1   
 37  31  32  1   
 38  31  38  1   
 39  33  34  1   
 40  33  37  am  
 41  37  40  2   
 42  37  41  1   
 43  38  39  1   
 44  38  43  1   
 45  41  42  1   
 46  41  46  2   
 47  43  44  1   
 48  43  45  1   
 49  46  47  1   
@<TRIPOS>SUBSTRUCTURE
  1 UPP  38 GROUP 4 A **** 0

# MOE 2022.02 (io_trps.svl 2020.11)
