# created with PyMOL 2.5.0
@<TRIPOS>MOLECULE
3BXO
31 33 1                 
SMALL
USER_CHARGES
@<TRIPOS>ATOM
1	  PA	17.106	2.033	27.687	P.3	1	UPP239	0.000	
2	  PB	14.966	1.851	25.775	P.3	1	UPP239	0.000	
3	 C6'	15.274	-0.986	23.406	C.2	1	UPP239	0.000	
4	 C5'	15.065	-1.318	22.088	C.2	1	UPP239	0.000	
5	 O5'	18.686	1.916	27.539	O.3	1	UPP239	0.000	
6	 C4'	14.136	-0.635	21.331	C.2	1	UPP239	0.000	
7	 O4'	20.406	3.320	24.632	O.3	1	UPP239	0.000	
8	 C3'	13.431	0.383	21.932	C.2	1	UPP239	0.000	
9	 O3'	21.071	0.304	24.975	O.3	1	UPP239	0.000	
10	 C2'	13.644	0.713	23.260	C.2	1	UPP239	0.000	
11	 O2'	23.443	1.492	25.383	O.3	1	UPP239	0.000	
12	 C1'	14.594	0.048	24.023	C.2	1	UPP239	0.000	
13	 C1B	21.817	3.009	24.468	C.3	1	UPP239	0.000	
14	  N1	22.498	4.251	24.205	N.2	1	UPP239	0.000	
15	 O1A	16.666	0.711	28.480	O.co2	1	UPP239	0.000	
16	 O1B	13.880	2.184	26.913	O.co2	1	UPP239	0.000	
17	  C2	23.360	4.287	23.164	C.2	1	UPP239	0.000	
18	 C2B	22.285	2.287	25.735	C.3	1	UPP239	0.000	
19	  O2	23.604	3.300	22.487	O.2	1	UPP239	0.000	
20	 O2A	16.743	3.321	28.546	O.co2	1	UPP239	0.000	
21	 O2B	14.658	2.760	24.515	O.co2	1	UPP239	0.000	
22	 C3B	21.031	1.386	25.936	C.3	1	UPP239	0.000	
23	  N3	23.959	5.421	22.858	N.2	1	UPP239	0.000	
24	 O3A	16.501	2.193	26.173	O.3	1	UPP239	0.000	
25	 O3B	14.845	0.298	25.357	O.3	1	UPP239	0.000	
26	  C4	23.725	6.530	23.586	C.2	1	UPP239	0.000	
27	 C4B	19.843	2.310	25.508	C.3	1	UPP239	0.000	
28	  O4	24.297	7.556	23.268	O.2	1	UPP239	0.000	
29	  C5	22.824	6.511	24.678	C.2	1	UPP239	0.000	
30	 C5B	19.056	2.952	26.650	C.3	1	UPP239	0.000	
31	  C6	22.195	5.353	24.953	C.2	1	UPP239	0.000	
@<TRIPOS>BOND
1 1 5 1
2 1 15 1
3 1 20 2
4 1 24 1
5 2 16 1
6 2 21 2
7 2 24 1
8 2 25 1
9 3 4 ar
10 3 12 ar
11 4 6 ar
12 5 30 1
13 6 8 ar
14 7 13 1
15 7 27 1
16 8 10 ar
17 9 22 1
18 10 12 ar
19 11 18 1
20 12 25 1
21 13 14 1
22 13 18 1
23 14 17 ar
24 14 31 ar
25 17 19 2
26 17 23 ar
27 18 22 1
28 22 27 1
29 23 26 ar
30 26 28 2
31 26 29 ar
32 27 30 1
33 29 31 ar
@<TRIPOS>SUBSTRUCTURE
1	UPP239	1	GROUP	1 A	UPP
