@<TRIPOS>MOLECULE
3BXO.B
47 49 1 0 0 
SMALL
USER_CHARGES


@<TRIPOS>ATOM
  1 PA      10.6360     0.3670    53.6550 P.3   1 UPP   1.4424 
  2 PB      12.8210    -0.0290    55.3670 P.3   1 UPP   1.4424 
  3 C6'     12.4280    -3.1550    57.2830 C.ar  1 UPP  -0.1500 
  4 H6'     11.6778    -3.5986    56.6452 H     1 UPP   0.1500 
  5 C5'     12.6550    -3.6630    58.5570 C.ar  1 UPP  -0.1500 
  6 H5'     12.0716    -4.5022    58.9060 H     1 UPP   0.1500 
  7 O5'      9.0400     0.3350    53.8440 O.3   1 UPP  -0.5512 
  8 C4'     13.6230    -3.1070    59.3910 C.ar  1 UPP  -0.1500 
  9 H4'     13.7861    -3.5050    60.3817 H     1 UPP   0.1500 
 10 O4'      7.3100     1.2980    56.9490 O.3   1 UPP  -0.5600 
 11 C3'     14.3730    -2.0370    58.9320 C.ar  1 UPP  -0.1500 
 12 H3'     15.1208    -1.5918    59.5715 H     1 UPP   0.1500 
 13 O3'      6.5910    -1.6000    55.9770 O.3   1 UPP  -0.6800 
 14 H3'      7.4188    -2.0663    55.8395 H     1 UPP   0.4000 
 15 C2'     14.1700    -1.5360    57.6610 C.ar  1 UPP  -0.1500 
 16 H2'     14.7849    -0.7244    57.3010 H     1 UPP   0.1500 
 17 O2'      4.3420    -0.2280    55.9080 O.3   1 UPP  -0.6800 
 18 H2'      4.5341    -0.8340    56.6273 H     1 UPP   0.4000 
 19 C1'     13.1760    -2.0700    56.8370 C.ar  1 UPP   0.0825 
 20 C1B      5.9000     0.9550    57.0810 C.3   1 UPP   0.5001 
 21 H1B      5.6970     0.1741    57.8139 H     1 UPP   0.0800 
 22 N1       5.1960     2.1580    57.4670 N.am  1 UPP  -0.4691 
 23 O1A     10.9940    -0.7930    52.6280 O.co2 1 UPP  -0.9500 
 24 O1B     13.7580     0.4760    54.1720 O.co2 1 UPP  -0.9500 
 25 C2       4.2360     2.1180    58.4120 C.2   1 UPP   0.6900 
 26 C2B      5.4860     0.5440    55.6890 C.3   1 UPP   0.2000 
 27 H2B      5.2745     1.3093    54.9423 H     1 UPP   0.0800 
 28 O2       3.8880     1.0740    58.9610 O.2   1 UPP  -0.5700 
 29 O2A     11.0550     1.8630    53.1980 O.co2 1 UPP  -0.9500 
 30 O2B     13.1310     0.8130    56.6750 O.co2 1 UPP  -0.9500 
 31 C3B      6.6890    -0.3420    55.3120 C.3   1 UPP   0.2000 
 32 H3B      6.7700    -0.5349    54.2423 H     1 UPP   0.0800 
 33 N3       3.6630     3.2520    58.7980 N.am  1 UPP  -0.4900 
 34 H3       2.9543     3.2345    59.5174 H     1 UPP   0.3700 
 35 O3A     11.2430     0.1540    55.1460 O.3   1 UPP  -0.5424 
 36 O3B     12.9870    -1.6220    55.5650 O.3   1 UPP  -0.3537 
 37 C4       4.0180     4.4270    58.2390 C.2   1 UPP   0.6156 
 38 C4B      7.8690     0.4390    55.9230 C.3   1 UPP   0.2000 
 39 H4B      8.5883    -0.2657    56.3403 H     1 UPP   0.0800 
 40 O4       3.4750     5.4590    58.5980 O.2   1 UPP  -0.5700 
 41 C5       5.0170     4.4670    57.2360 C.2   1 UPP  -0.1356 
 42 H5       5.3032     5.4045    56.7826 H     1 UPP   0.1500 
 43 C5B      8.6920     1.2300    54.9000 C.3   1 UPP   0.1200 
 44 H5B1     8.1011     2.0573    54.5069 H     1 UPP   0.0800 
 45 H5B2     9.5949     1.6196    55.3702 H     1 UPP   0.0800 
 46 C6       5.6030     3.3170    56.8580 C.2   1 UPP  -0.0410 
 47 H6       6.3705     3.3068    56.0982 H     1 UPP   0.1500 
@<TRIPOS>BOND
  1   1   7  1   
  2   1  23  ar  
  3   1  29  ar  
  4   1  35  1   
  5   2  24  ar  
  6   2  30  ar  
  7   2  35  1   
  8   2  36  1   
  9   3   4  1   
 10   3   5  ar  
 11   3  19  ar  
 12   5   6  1   
 13   5   8  ar  
 14   7  43  1   
 15   8   9  1   
 16   8  11  ar  
 17  10  20  1   
 18  10  38  1   
 19  11  12  1   
 20  11  15  ar  
 21  13  14  1   
 22  13  31  1   
 23  15  16  1   
 24  15  19  ar  
 25  17  18  1   
 26  17  26  1   
 27  19  36  1   
 28  20  21  1   
 29  20  22  1   
 30  20  26  1   
 31  22  25  am  
 32  22  46  1   
 33  25  28  2   
 34  25  33  am  
 35  26  27  1   
 36  26  31  1   
 37  31  32  1   
 38  31  38  1   
 39  33  34  1   
 40  33  37  am  
 41  37  40  2   
 42  37  41  1   
 43  38  39  1   
 44  38  43  1   
 45  41  42  1   
 46  41  46  2   
 47  43  44  1   
 48  43  45  1   
 49  46  47  1   
@<TRIPOS>SUBSTRUCTURE
  1 UPP  38 GROUP 4 B **** 0

# MOE 2022.02 (io_trps.svl 2020.11)
