# created with PyMOL 2.5.0
@<TRIPOS>MOLECULE
3BXO
31 33 1                 
SMALL
USER_CHARGES
@<TRIPOS>ATOM
1	  PA	10.636	0.367	53.655	P.3	1	UPP239	0.000	
2	  PB	12.821	-0.029	55.367	P.3	1	UPP239	0.000	
3	 C6'	12.428	-3.155	57.283	C.2	1	UPP239	0.000	
4	 C5'	12.655	-3.663	58.557	C.2	1	UPP239	0.000	
5	 O5'	9.040	0.335	53.844	O.3	1	UPP239	0.000	
6	 C4'	13.623	-3.107	59.391	C.2	1	UPP239	0.000	
7	 O4'	7.310	1.298	56.949	O.3	1	UPP239	0.000	
8	 C3'	14.373	-2.037	58.932	C.2	1	UPP239	0.000	
9	 O3'	6.591	-1.600	55.977	O.3	1	UPP239	0.000	
10	 C2'	14.170	-1.536	57.661	C.2	1	UPP239	0.000	
11	 O2'	4.342	-0.228	55.908	O.3	1	UPP239	0.000	
12	 C1'	13.176	-2.070	56.837	C.2	1	UPP239	0.000	
13	 C1B	5.900	0.955	57.081	C.3	1	UPP239	0.000	
14	  N1	5.196	2.158	57.467	N.2	1	UPP239	0.000	
15	 O1A	10.994	-0.793	52.628	O.co2	1	UPP239	0.000	
16	 O1B	13.758	0.476	54.172	O.co2	1	UPP239	0.000	
17	  C2	4.236	2.118	58.412	C.2	1	UPP239	0.000	
18	 C2B	5.486	0.544	55.689	C.3	1	UPP239	0.000	
19	  O2	3.888	1.074	58.961	O.2	1	UPP239	0.000	
20	 O2A	11.055	1.863	53.198	O.co2	1	UPP239	0.000	
21	 O2B	13.131	0.813	56.675	O.co2	1	UPP239	0.000	
22	 C3B	6.689	-0.342	55.312	C.3	1	UPP239	0.000	
23	  N3	3.663	3.252	58.798	N.2	1	UPP239	0.000	
24	 O3A	11.243	0.154	55.146	O.3	1	UPP239	0.000	
25	 O3B	12.987	-1.622	55.565	O.3	1	UPP239	0.000	
26	  C4	4.018	4.427	58.239	C.2	1	UPP239	0.000	
27	 C4B	7.869	0.439	55.923	C.3	1	UPP239	0.000	
28	  O4	3.475	5.459	58.598	O.2	1	UPP239	0.000	
29	  C5	5.017	4.467	57.236	C.2	1	UPP239	0.000	
30	 C5B	8.692	1.230	54.900	C.3	1	UPP239	0.000	
31	  C6	5.603	3.317	56.858	C.2	1	UPP239	0.000	
@<TRIPOS>BOND
1 1 5 1
2 1 15 1
3 1 20 2
4 1 24 1
5 2 16 1
6 2 21 2
7 2 24 1
8 2 25 1
9 3 4 ar
10 3 12 ar
11 4 6 ar
12 5 30 1
13 6 8 ar
14 7 13 1
15 7 27 1
16 8 10 ar
17 9 22 1
18 10 12 ar
19 11 18 1
20 12 25 1
21 13 14 1
22 13 18 1
23 14 17 ar
24 14 31 ar
25 17 19 2
26 17 23 ar
27 18 22 1
28 22 27 1
29 23 26 ar
30 26 28 2
31 26 29 ar
32 27 30 1
33 29 31 ar
@<TRIPOS>SUBSTRUCTURE
1	UPP239	1	GROUP	1 B	UPP
