# created with PyMOL 2.5.0
@<TRIPOS>MOLECULE
3DOU
27 29 1                 
SMALL
USER_CHARGES
@<TRIPOS>ATOM
1	   N	17.857	17.868	14.645	N.3	1	SAM1	0.000	
2	  CA	19.203	17.769	14.000	C.3	1	SAM1	0.000	
3	   C	20.219	18.203	15.032	C.2	1	SAM1	0.000	
4	   O	21.420	18.040	14.822	O.co2	1	SAM1	0.000	
5	  CB	19.326	18.601	12.720	C.3	1	SAM1	0.000	
6	  CG	18.508	18.094	11.528	C.3	1	SAM1	0.000	
7	  SD	18.835	18.904	9.923	S.3	1	SAM1	0.000	
8	  CE	17.777	20.355	10.153	C.3	1	SAM1	0.000	
9	 C5'	17.693	17.881	8.908	C.3	1	SAM1	0.000	
10	 C4'	18.087	16.427	8.641	C.3	1	SAM1	0.000	
11	 O4'	16.991	15.776	8.017	O.3	1	SAM1	0.000	
12	 C3'	19.259	16.279	7.669	C.3	1	SAM1	0.000	
13	 O3'	20.385	15.726	8.337	O.3	1	SAM1	0.000	
14	 C2'	18.732	15.367	6.558	C.3	1	SAM1	0.000	
15	 O2'	19.704	14.473	6.034	O.3	1	SAM1	0.000	
16	 C1'	17.512	14.716	7.225	C.3	1	SAM1	0.000	
17	 OXT	19.852	18.712	16.093	O.co2	1	SAM1	0.000	
18	  N1	15.220	10.495	5.272	N.2	1	SAM1	0.000	
19	  C2	16.046	10.598	6.375	C.2	1	SAM1	0.000	
20	  N3	16.559	11.820	6.768	N.2	1	SAM1	0.000	
21	  C4	16.236	12.919	6.033	C.2	1	SAM1	0.000	
22	  C5	15.383	12.849	4.928	C.2	1	SAM1	0.000	
23	  C6	14.877	11.601	4.530	C.2	1	SAM1	0.000	
24	  N6	14.079	11.485	3.469	N.pl3	1	SAM1	0.000	
25	  N7	15.239	14.111	4.410	N.2	1	SAM1	0.000	
26	  C8	15.981	14.954	5.185	C.2	1	SAM1	0.000	
27	  N9	16.596	14.237	6.190	N.2	1	SAM1	0.000	
@<TRIPOS>BOND
1 1 2 1
2 2 3 1
3 2 5 1
4 3 4 ar
5 3 17 ar
6 5 6 1
7 6 7 1
8 7 8 1
9 7 9 1
10 9 10 1
11 10 11 1
12 10 12 1
13 11 16 1
14 12 13 1
15 12 14 1
16 14 15 1
17 14 16 1
18 16 27 1
19 18 19 ar
20 18 23 ar
21 19 20 ar
22 20 21 ar
23 21 22 ar
24 21 27 ar
25 22 23 ar
26 22 25 ar
27 23 24 1
28 25 26 ar
29 26 27 ar
@<TRIPOS>SUBSTRUCTURE
1	SAM1	1	GROUP	1 A	SAM
