# created with PyMOL 2.4.0
@<TRIPOS>MOLECULE
temp
50 52 1                 
SMALL
USER_CHARGES
@<TRIPOS>ATOM
1	   N	17.857	17.868	14.645	N.4	1	SAM1	0.000	
2	  CA	19.203	17.769	14.000	C.3	1	SAM1	0.000	
3	   C	20.219	18.203	15.032	C.2	1	SAM1	0.000	
4	   O	21.420	18.040	14.822	O.co2	1	SAM1	0.000	
5	  CB	19.326	18.601	12.720	C.3	1	SAM1	0.000	
6	  CG	18.508	18.094	11.528	C.3	1	SAM1	0.000	
7	  SD	18.835	18.904	9.923	S.3	1	SAM1	0.000	
8	  CE	17.777	20.355	10.153	C.3	1	SAM1	0.000	
9	 C5'	17.693	17.881	8.908	C.3	1	SAM1	0.000	
10	 C4'	18.087	16.427	8.641	C.3	1	SAM1	0.000	
11	 O4'	16.991	15.776	8.017	O.3	1	SAM1	0.000	
12	 C3'	19.259	16.279	7.669	C.3	1	SAM1	0.000	
13	 O3'	20.385	15.726	8.337	O.3	1	SAM1	0.000	
14	 C2'	18.732	15.367	6.558	C.3	1	SAM1	0.000	
15	 O2'	19.704	14.473	6.034	O.3	1	SAM1	0.000	
16	 C1'	17.512	14.716	7.225	C.3	1	SAM1	0.000	
17	 OXT	19.852	18.712	16.093	O.co2	1	SAM1	0.000	
18	  N1	15.220	10.495	5.272	N.2	1	SAM1	0.000	
19	  C2	16.046	10.598	6.375	C.2	1	SAM1	0.000	
20	  N3	16.559	11.820	6.768	N.2	1	SAM1	0.000	
21	  C4	16.236	12.919	6.033	C.2	1	SAM1	0.000	
22	  C5	15.383	12.849	4.928	C.2	1	SAM1	0.000	
23	  C6	14.877	11.601	4.530	C.2	1	SAM1	0.000	
24	  N6	14.079	11.485	3.469	N.pl3	1	SAM1	0.000	
25	  N7	15.239	14.111	4.410	N.2	1	SAM1	0.000	
26	  C8	15.981	14.954	5.185	C.2	1	SAM1	0.000	
27	  N9	16.596	14.237	6.190	N.2	1	SAM1	0.000	
28	  HA	19.372	16.741	13.681	 H	1	SAM1	0.000	
29	 HB1	20.376	18.614	12.427	 H	1	SAM1	0.000	
30	 HB2	18.999	19.616	12.946	 H	1	SAM1	0.000	
31	 HG1	17.453	18.236	11.764	 H	1	SAM1	0.000	
32	 HG2	18.714	17.030	11.412	 H	1	SAM1	0.000	
33	 HE1	18.304	21.097	10.753	 H	1	SAM1	0.000	
34	 HE2	16.860	20.059	10.663	 H	1	SAM1	0.000	
35	 HE3	17.530	20.782	9.181	 H	1	SAM1	0.000	
36	  H1	17.695	18.820	14.943	 H	1	SAM1	0.000	
37	  H2	17.822	17.254	15.446	 H	1	SAM1	0.000	
38	  H2	16.294	9.711	6.938	 H	1	SAM1	0.000	
39	  H3	17.145	17.597	13.982	 H	1	SAM1	0.000	
40	  H8	16.073	16.020	5.035	 H	1	SAM1	0.000	
41	 H1'	17.719	13.837	7.836	 H	1	SAM1	0.000	
42	 H2'	18.462	15.896	5.644	 H	1	SAM1	0.000	
43	 H2'	20.028	13.937	6.762	 H	1	SAM1	0.000	
44	 H3'	19.600	17.231	7.262	 H	1	SAM1	0.000	
45	 H3'	21.082	15.614	7.687	 H	1	SAM1	0.000	
46	 H4'	18.369	16.004	9.605	 H	1	SAM1	0.000	
47	 H61	13.827	12.304	2.934	 H	1	SAM1	0.000	
48	 H62	13.726	10.578	3.200	 H	1	SAM1	0.000	
49	H5'1	17.588	18.373	7.941	 H	1	SAM1	0.000	
50	H5'2	16.729	17.869	9.416	 H	1	SAM1	0.000	
@<TRIPOS>BOND
1 1 2 1
2 1 36 1
3 1 37 1
4 1 39 1
5 2 3 1
6 2 5 1
7 2 28 1
8 3 4 ar
9 3 17 ar
10 5 6 1
11 5 29 1
12 5 30 1
13 6 7 1
14 6 31 1
15 6 32 1
16 7 8 1
17 7 9 1
18 8 33 1
19 8 34 1
20 8 35 1
21 9 10 1
22 9 49 1
23 9 50 1
24 10 11 1
25 10 12 1
26 10 46 1
27 11 16 1
28 12 13 1
29 12 14 1
30 12 44 1
31 13 45 1
32 14 15 1
33 14 16 1
34 14 42 1
35 15 43 1
36 16 27 1
37 16 41 1
38 18 19 ar
39 18 23 ar
40 19 20 ar
41 19 38 1
42 20 21 ar
43 21 22 ar
44 21 27 ar
45 22 23 ar
46 22 25 ar
47 23 24 1
48 24 47 1
49 24 48 1
50 25 26 ar
51 26 27 ar
52 26 40 1
@<TRIPOS>SUBSTRUCTURE
1	SAM1	1	GROUP	1 A	SAM
