@<TRIPOS>MOLECULE
2FK8.A
51 53 1 0 0 
SMALL
USER_CHARGES


@<TRIPOS>ATOM
  1 N       24.1690    -5.6400    12.4260 N.4   1 SAM  -0.8530 
  2 H1      24.2630    -5.4325    13.4100 H     1 SAM   0.4500 
  3 H2      23.3518    -5.1727    12.0600 H     1 SAM   0.4500 
  4 H3      24.9899    -5.3175    11.9339 H     1 SAM   0.4500 
  5 CA      24.0260    -7.0980    12.2420 C.3   1 SAM   0.3170 
  6 HA      23.9292    -7.2579    11.1681 H     1 SAM   0.0800 
  7 C       22.7420    -7.6570    12.8850 C.2   1 SAM   0.9060 
  8 O       21.9910    -6.9130    13.5500 O.co2 1 SAM  -0.9000 
  9 CB      25.2710    -7.8630    12.7040 C.3   1 SAM  -0.1600 
 10 HB1     26.1342    -7.4586    12.1754 H     1 SAM   0.0800 
 11 HB2     25.1424    -8.9127    12.4401 H     1 SAM   0.0800 
 12 CG      25.5460    -7.7800    14.1900 C.3   1 SAM  -0.1525 
 13 HG1     24.6425    -8.0297    14.7463 H     1 SAM   0.0800 
 14 HG2     25.8653    -6.7707    14.4497 H     1 SAM   0.0800 
 15 SD      26.8600    -8.9610    14.5940 S.3   1 SAM   0.9775 
 16 CE      26.5750    -9.1950    16.3780 C.3   1 SAM  -0.2325 
 17 HE1     25.6647    -9.7756    16.5274 H     1 SAM   0.0800 
 18 HE2     26.4691    -8.2229    16.8596 H     1 SAM   0.0800 
 19 HE3     27.4207    -9.7265    16.8144 H     1 SAM   0.0800 
 20 C5'     28.4190    -7.9710    14.4850 C.3   1 SAM  -0.1525 
 21 H5'1    29.2183    -8.6063    14.8666 H     1 SAM   0.0800 
 22 H5'2    28.2898    -7.1136    15.1455 H     1 SAM   0.0800 
 23 C4'     28.9120    -7.4090    13.1180 C.3   1 SAM   0.2000 
 24 H4'     27.9790    -7.0874    12.6551 H     1 SAM   0.0800 
 25 O4'     29.8910    -6.3850    13.3220 O.3   1 SAM  -0.5600 
 26 C3'     29.6350    -8.3990    12.1880 C.3   1 SAM   0.2000 
 27 H3'     29.4349    -9.4453    12.4189 H     1 SAM   0.0800 
 28 O3'     29.1940    -8.1880    10.8390 O.3   1 SAM  -0.6800 
 29 H3'     29.6957    -8.7799    10.2737 H     1 SAM   0.4000 
 30 C2'     31.1370    -8.0640    12.3640 C.3   1 SAM   0.2000 
 31 H2'     31.6246    -8.5775    13.1927 H     1 SAM   0.0800 
 32 O2'     31.9330    -8.4410    11.2660 O.3   1 SAM  -0.6800 
 33 H2'     32.8266    -8.1344    11.4364 H     1 SAM   0.4000 
 34 C1'     31.0150    -6.5520    12.4710 C.3   1 SAM   0.5691 
 35 H1'     30.9143    -6.1254    11.4730 H     1 SAM   0.0800 
 36 OXT     22.4700    -8.8650    12.7110 O.co2 1 SAM  -0.9000 
 37 N1      34.1220    -2.4870    11.3520 N.2   1 SAM  -0.6610 
 38 C2      33.0670    -2.9980    10.6210 C.2   1 SAM   0.6010 
 39 H2      32.7955    -2.5412     9.6808 H     1 SAM   0.0600 
 40 N3      32.3560    -4.0900    11.0840 N.2   1 SAM  -0.6610 
 41 C4      32.7120    -4.6810    12.2690 C.2   1 SAM   0.5000 
 42 C5      33.7830    -4.1860    13.0170 C.2   1 SAM   0.4500 
 43 C6      34.5180    -3.0860    12.5380 C.2   1 SAM   0.6110 
 44 N6      35.5790    -2.5900    13.2100 N.2   1 SAM  -0.2000 
 45 H62     36.0864    -1.7990    12.8398 H     1 SAM   0.4000 
 46 H61     35.8652    -3.0100    14.0828 H     1 SAM   0.4000 
 47 N7      33.9030    -4.9770    14.1350 N.2   1 SAM  -0.6960 
 48 C8      32.9310    -5.9420    14.0990 C.3   1 SAM   0.4551 
 49 H81     32.2751    -5.8366    14.9632 H     1 SAM   0.0800 
 50 H82     33.3919    -6.9297    14.1110 H     1 SAM   0.0800 
 51 N9      32.2040    -5.7820    12.9410 N.pl3 1 SAM  -0.7882 
@<TRIPOS>BOND
  1   1   2  1   
  2   1   3  1   
  3   1   4  1   
  4   1   5  1   
  5   5   6  1   
  6   5   7  1   
  7   5   9  1   
  8   7   8  ar  
  9   7  36  ar  
 10   9  10  1   
 11   9  11  1   
 12   9  12  1   
 13  12  13  1   
 14  12  14  1   
 15  12  15  1   
 16  15  16  1   
 17  15  20  1   
 18  16  17  1   
 19  16  18  1   
 20  16  19  1   
 21  20  21  1   
 22  20  22  1   
 23  20  23  1   
 24  23  24  1   
 25  23  25  1   
 26  23  26  1   
 27  25  34  1   
 28  26  27  1   
 29  26  28  1   
 30  26  30  1   
 31  28  29  1   
 32  30  31  1   
 33  30  32  1   
 34  30  34  1   
 35  32  33  1   
 36  34  35  1   
 37  34  51  1   
 38  37  38  2   
 39  37  43  1   
 40  38  39  1   
 41  38  40  1   
 42  40  41  2   
 43  41  42  1   
 44  41  51  1   
 45  42  43  1   
 46  42  47  2   
 47  43  44  2   
 48  44  45  1   
 49  44  46  1   
 50  47  48  1   
 51  48  49  1   
 52  48  50  1   
 53  48  51  1   
@<TRIPOS>SUBSTRUCTURE
  1 SAM  25 GROUP 4 A **** 0

# MOE 2022.02 (io_trps.svl 2020.11)
