# created with PyMOL 2.5.0
@<TRIPOS>MOLECULE
2FK8
27 29 1                 
SMALL
USER_CHARGES
@<TRIPOS>ATOM
1	   N	24.169	-5.640	12.426	N.3	1	SAM302	0.000	
2	  CA	24.026	-7.098	12.242	C.3	1	SAM302	0.000	
3	   C	22.742	-7.657	12.885	C.2	1	SAM302	0.000	
4	   O	21.991	-6.913	13.550	O.co2	1	SAM302	0.000	
5	  CB	25.271	-7.863	12.704	C.3	1	SAM302	0.000	
6	  CG	25.546	-7.780	14.190	C.3	1	SAM302	0.000	
7	  SD	26.860	-8.961	14.594	S.3	1	SAM302	0.000	
8	  CE	26.575	-9.195	16.378	C.3	1	SAM302	0.000	
9	 C5'	28.419	-7.971	14.485	C.3	1	SAM302	0.000	
10	 C4'	28.912	-7.409	13.118	C.3	1	SAM302	0.000	
11	 O4'	29.891	-6.385	13.322	O.3	1	SAM302	0.000	
12	 C3'	29.635	-8.399	12.188	C.3	1	SAM302	0.000	
13	 O3'	29.194	-8.188	10.839	O.3	1	SAM302	0.000	
14	 C2'	31.137	-8.064	12.364	C.3	1	SAM302	0.000	
15	 O2'	31.933	-8.441	11.266	O.3	1	SAM302	0.000	
16	 C1'	31.015	-6.552	12.471	C.3	1	SAM302	0.000	
17	 OXT	22.470	-8.865	12.711	O.co2	1	SAM302	0.000	
18	  N1	34.122	-2.487	11.352	N.2	1	SAM302	0.000	
19	  C2	33.067	-2.998	10.621	C.2	1	SAM302	0.000	
20	  N3	32.356	-4.090	11.084	N.2	1	SAM302	0.000	
21	  C4	32.712	-4.681	12.269	C.2	1	SAM302	0.000	
22	  C5	33.783	-4.186	13.017	C.2	1	SAM302	0.000	
23	  C6	34.518	-3.086	12.538	C.2	1	SAM302	0.000	
24	  N6	35.579	-2.590	13.210	N.pl3	1	SAM302	0.000	
25	  N7	33.903	-4.977	14.135	N.2	1	SAM302	0.000	
26	  C8	32.931	-5.942	14.099	C.2	1	SAM302	0.000	
27	  N9	32.204	-5.782	12.941	N.2	1	SAM302	0.000	
@<TRIPOS>BOND
1 1 2 1
2 2 3 1
3 2 5 1
4 3 4 ar
5 3 17 ar
6 5 6 1
7 6 7 1
8 7 8 1
9 7 9 1
10 9 10 1
11 10 11 1
12 10 12 1
13 11 16 1
14 12 13 1
15 12 14 1
16 14 15 1
17 14 16 1
18 16 27 1
19 18 19 ar
20 18 23 ar
21 19 20 ar
22 20 21 ar
23 21 22 ar
24 21 27 ar
25 22 23 ar
26 22 25 ar
27 23 24 1
28 25 26 ar
29 26 27 ar
@<TRIPOS>SUBSTRUCTURE
1	SAM302	1	GROUP	1 A	SAM
