# created with PyMOL 2.4.0
@<TRIPOS>MOLECULE
temp
50 52 1                 
SMALL
USER_CHARGES
@<TRIPOS>ATOM
1	   N	24.169	-5.640	12.426	N.4	1	SAM1	0.000	
2	  CA	24.026	-7.098	12.242	C.3	1	SAM1	0.000	
3	   C	22.742	-7.657	12.885	C.2	1	SAM1	0.000	
4	   O	21.991	-6.913	13.550	O.co2	1	SAM1	0.000	
5	  CB	25.271	-7.863	12.704	C.3	1	SAM1	0.000	
6	  CG	25.546	-7.780	14.190	C.3	1	SAM1	0.000	
7	  SD	26.860	-8.961	14.594	S.3	1	SAM1	0.000	
8	  CE	26.575	-9.195	16.378	C.3	1	SAM1	0.000	
9	 C5'	28.419	-7.971	14.485	C.3	1	SAM1	0.000	
10	 C4'	28.912	-7.409	13.118	C.3	1	SAM1	0.000	
11	 O4'	29.891	-6.385	13.322	O.3	1	SAM1	0.000	
12	 C3'	29.635	-8.399	12.188	C.3	1	SAM1	0.000	
13	 O3'	29.194	-8.188	10.839	O.3	1	SAM1	0.000	
14	 C2'	31.137	-8.064	12.364	C.3	1	SAM1	0.000	
15	 O2'	31.933	-8.441	11.266	O.3	1	SAM1	0.000	
16	 C1'	31.015	-6.552	12.471	C.3	1	SAM1	0.000	
17	 OXT	22.470	-8.865	12.711	O.co2	1	SAM1	0.000	
18	  N1	34.122	-2.487	11.352	N.2	1	SAM1	0.000	
19	  C2	33.067	-2.998	10.621	C.2	1	SAM1	0.000	
20	  N3	32.356	-4.090	11.084	N.2	1	SAM1	0.000	
21	  C4	32.712	-4.681	12.269	C.2	1	SAM1	0.000	
22	  C5	33.783	-4.186	13.017	C.2	1	SAM1	0.000	
23	  C6	34.518	-3.086	12.538	C.2	1	SAM1	0.000	
24	  N6	35.579	-2.590	13.210	N.pl3	1	SAM1	0.000	
25	  N7	33.903	-4.977	14.135	N.2	1	SAM1	0.000	
26	  C8	32.931	-5.942	14.099	C.2	1	SAM1	0.000	
27	  N9	32.204	-5.782	12.941	N.2	1	SAM1	0.000	
28	  HA	23.929	-7.258	11.168	 H	1	SAM1	0.000	
29	 HB1	26.134	-7.459	12.175	 H	1	SAM1	0.000	
30	 HB2	25.142	-8.913	12.440	 H	1	SAM1	0.000	
31	 HG1	24.642	-8.030	14.746	 H	1	SAM1	0.000	
32	 HG2	25.865	-6.771	14.450	 H	1	SAM1	0.000	
33	 HE1	25.665	-9.776	16.527	 H	1	SAM1	0.000	
34	 HE2	26.469	-8.223	16.860	 H	1	SAM1	0.000	
35	 HE3	27.421	-9.726	16.814	 H	1	SAM1	0.000	
36	  H1	24.263	-5.432	13.410	 H	1	SAM1	0.000	
37	  H2	23.352	-5.173	12.060	 H	1	SAM1	0.000	
38	  H2	32.796	-2.541	9.681	 H	1	SAM1	0.000	
39	  H3	24.990	-5.318	11.934	 H	1	SAM1	0.000	
40	  H8	32.764	-6.699	14.851	 H	1	SAM1	0.000	
41	 H1'	30.914	-6.125	11.473	 H	1	SAM1	0.000	
42	 H2'	31.625	-8.578	13.193	 H	1	SAM1	0.000	
43	 H2'	31.901	-9.398	11.199	 H	1	SAM1	0.000	
44	 H3'	29.435	-9.445	12.419	 H	1	SAM1	0.000	
45	 H3'	29.696	-8.780	10.274	 H	1	SAM1	0.000	
46	 H4'	27.979	-7.087	12.655	 H	1	SAM1	0.000	
47	 H61	35.865	-3.010	14.083	 H	1	SAM1	0.000	
48	 H62	36.086	-1.799	12.840	 H	1	SAM1	0.000	
49	H5'1	29.218	-8.606	14.867	 H	1	SAM1	0.000	
50	H5'2	28.290	-7.114	15.146	 H	1	SAM1	0.000	
@<TRIPOS>BOND
1 1 2 1
2 1 36 1
3 1 37 1
4 1 39 1
5 2 3 1
6 2 5 1
7 2 28 1
8 3 4 ar
9 3 17 ar
10 5 6 1
11 5 29 1
12 5 30 1
13 6 7 1
14 6 31 1
15 6 32 1
16 7 8 1
17 7 9 1
18 8 33 1
19 8 34 1
20 8 35 1
21 9 10 1
22 9 49 1
23 9 50 1
24 10 11 1
25 10 12 1
26 10 46 1
27 11 16 1
28 12 13 1
29 12 14 1
30 12 44 1
31 13 45 1
32 14 15 1
33 14 16 1
34 14 42 1
35 15 43 1
36 16 27 1
37 16 41 1
38 18 19 ar
39 18 23 ar
40 19 20 ar
41 19 38 1
42 20 21 ar
43 21 22 ar
44 21 27 ar
45 22 23 ar
46 22 25 ar
47 23 24 1
48 24 47 1
49 24 48 1
50 25 26 ar
51 26 27 ar
52 26 40 1
@<TRIPOS>SUBSTRUCTURE
1	SAM1	1	GROUP	1 A	SAM
