@<TRIPOS>MOLECULE
3PFG.A
51 53 1 0 0 
SMALL
USER_CHARGES


@<TRIPOS>ATOM
  1 N       -5.2490     0.7070    19.2290 N.4   1 SAM  -0.8530 
  2 H1      -4.7149     0.8196    20.0788 H     1 SAM   0.4500 
  3 H2      -5.1291     1.5225    18.6454 H     1 SAM   0.4500 
  4 H3      -4.9254    -0.1117    18.7340 H     1 SAM   0.4500 
  5 CA      -6.7140     0.5430    19.5720 C.3   1 SAM   0.3170 
  6 HA      -7.2692     0.4234    18.6416 H     1 SAM   0.0800 
  7 C       -7.2270     1.7970    20.2570 C.2   1 SAM   0.9060 
  8 O       -6.4530     2.7460    20.4390 O.co2 1 SAM  -0.9000 
  9 CB      -7.0100    -0.7390    20.3440 C.3   1 SAM  -0.1600 
 10 HB1     -6.6012    -1.5843    19.7904 H     1 SAM   0.0800 
 11 HB2     -8.0903    -0.8524    20.4349 H     1 SAM   0.0800 
 12 CG      -6.3950    -0.7250    21.7490 C.3   1 SAM  -0.1525 
 13 HG1     -6.6523     0.2131    22.2408 H     1 SAM   0.0800 
 14 HG2     -5.3113    -0.8053    21.6640 H     1 SAM   0.0800 
 15 SD      -7.0240    -2.1270    22.7620 S.3   1 SAM   0.9775 
 16 CE      -6.6690    -1.4710    24.4010 C.3   1 SAM  -0.2325 
 17 HE1     -7.3827    -0.6823    24.6391 H     1 SAM   0.0800 
 18 HE2     -5.6581    -1.0636    24.4182 H     1 SAM   0.0800 
 19 HE3     -6.7513    -2.2700    25.1378 H     1 SAM   0.0800 
 20 C5'     -5.7300    -3.3830    22.6220 C.3   1 SAM  -0.1525 
 21 H5'1    -5.8778    -4.1340    23.3981 H     1 SAM   0.0800 
 22 H5'2    -4.7578    -2.9086    22.7559 H     1 SAM   0.0800 
 23 C4'     -5.7680    -4.0620    21.2600 C.3   1 SAM   0.2000 
 24 H4'     -5.7693    -3.2702    20.5109 H     1 SAM   0.0800 
 25 O4'     -4.6390    -4.9110    21.1340 O.3   1 SAM  -0.5600 
 26 C3'     -7.0310    -4.9190    21.0520 C.3   1 SAM   0.2000 
 27 H3'     -7.8030    -4.8245    21.8157 H     1 SAM   0.0800 
 28 O3'     -7.6840    -4.5400    19.8390 O.3   1 SAM  -0.6800 
 29 H3'     -8.4170    -5.1448    19.7027 H     1 SAM   0.4000 
 30 C2'     -6.4170    -6.3200    20.9880 C.3   1 SAM   0.2000 
 31 H2'     -6.4261    -6.7776    21.9772 H     1 SAM   0.0800 
 32 O2'     -7.0890    -7.3200    20.2160 O.3   1 SAM  -0.6800 
 33 H2'     -6.5762    -8.1291    20.2797 H     1 SAM   0.4000 
 34 C1'     -5.0990    -6.0030    20.3480 C.3   1 SAM   0.5691 
 35 H1'     -5.2588    -5.8654    19.2786 H     1 SAM   0.0800 
 36 OXT     -8.4270     1.8010    20.6160 O.co2 1 SAM  -0.9000 
 37 N1      -1.3280    -8.6020    17.9460 N.2   1 SAM  -0.6610 
 38 C2      -2.2270    -7.6730    17.4780 C.2   1 SAM   0.6010 
 39 H2      -2.1778    -7.4217    16.4288 H     1 SAM   0.0600 
 40 N3      -3.1850    -7.0360    18.2350 N.2   1 SAM  -0.6610 
 41 C4      -3.1740    -7.4760    19.5270 C.2   1 SAM   0.5000 
 42 C5      -2.3280    -8.4270    20.0800 C.2   1 SAM   0.4500 
 43 C6      -1.3620    -9.0040    19.2480 C.2   1 SAM   0.6110 
 44 N6      -0.4720    -9.9260    19.6510 N.2   1 SAM  -0.2000 
 45 H62      0.1988   -10.3007    18.9955 H     1 SAM   0.4000 
 46 H61     -0.4737   -10.2445    20.6095 H     1 SAM   0.4000 
 47 N7      -2.6680    -8.5370    21.4160 N.2   1 SAM  -0.6960 
 48 C8      -3.7080    -7.7110    21.6110 C.3   1 SAM   0.4551 
 49 H81     -3.4437    -6.9962    22.3903 H     1 SAM   0.0800 
 50 H82     -4.5654    -8.3010    21.9348 H     1 SAM   0.0800 
 51 N9      -4.0570    -7.0140    20.4740 N.pl3 1 SAM  -0.7882 
@<TRIPOS>BOND
  1   1   2  1   
  2   1   3  1   
  3   1   4  1   
  4   1   5  1   
  5   5   6  1   
  6   5   7  1   
  7   5   9  1   
  8   7   8  ar  
  9   7  36  ar  
 10   9  10  1   
 11   9  11  1   
 12   9  12  1   
 13  12  13  1   
 14  12  14  1   
 15  12  15  1   
 16  15  16  1   
 17  15  20  1   
 18  16  17  1   
 19  16  18  1   
 20  16  19  1   
 21  20  21  1   
 22  20  22  1   
 23  20  23  1   
 24  23  24  1   
 25  23  25  1   
 26  23  26  1   
 27  25  34  1   
 28  26  27  1   
 29  26  28  1   
 30  26  30  1   
 31  28  29  1   
 32  30  31  1   
 33  30  32  1   
 34  30  34  1   
 35  32  33  1   
 36  34  35  1   
 37  34  51  1   
 38  37  38  2   
 39  37  43  1   
 40  38  39  1   
 41  38  40  1   
 42  40  41  2   
 43  41  42  1   
 44  41  51  1   
 45  42  43  1   
 46  42  47  2   
 47  43  44  2   
 48  44  45  1   
 49  44  46  1   
 50  47  48  1   
 51  48  49  1   
 52  48  50  1   
 53  48  51  1   
@<TRIPOS>SUBSTRUCTURE
  1 SAM  25 GROUP 4 A **** 0

# MOE 2022.02 (io_trps.svl 2020.11)
