# created with PyMOL 2.5.0
@<TRIPOS>MOLECULE
3PFG
27 29 1                 
SMALL
USER_CHARGES
@<TRIPOS>ATOM
1	   N	-5.249	0.707	19.229	N.3	1	SAM264	0.000	
2	  CA	-6.714	0.543	19.572	C.3	1	SAM264	0.000	
3	   C	-7.227	1.797	20.257	C.2	1	SAM264	0.000	
4	   O	-6.453	2.746	20.439	O.co2	1	SAM264	0.000	
5	  CB	-7.010	-0.739	20.344	C.3	1	SAM264	0.000	
6	  CG	-6.395	-0.725	21.749	C.3	1	SAM264	0.000	
7	  SD	-7.024	-2.127	22.762	S.3	1	SAM264	0.000	
8	  CE	-6.669	-1.471	24.401	C.3	1	SAM264	0.000	
9	 C5'	-5.730	-3.383	22.622	C.3	1	SAM264	0.000	
10	 C4'	-5.768	-4.062	21.260	C.3	1	SAM264	0.000	
11	 O4'	-4.639	-4.911	21.134	O.3	1	SAM264	0.000	
12	 C3'	-7.031	-4.919	21.052	C.3	1	SAM264	0.000	
13	 O3'	-7.684	-4.540	19.839	O.3	1	SAM264	0.000	
14	 C2'	-6.417	-6.320	20.988	C.3	1	SAM264	0.000	
15	 O2'	-7.089	-7.320	20.216	O.3	1	SAM264	0.000	
16	 C1'	-5.099	-6.003	20.348	C.3	1	SAM264	0.000	
17	 OXT	-8.427	1.801	20.616	O.co2	1	SAM264	0.000	
18	  N1	-1.328	-8.602	17.946	N.2	1	SAM264	0.000	
19	  C2	-2.227	-7.673	17.478	C.2	1	SAM264	0.000	
20	  N3	-3.185	-7.036	18.235	N.2	1	SAM264	0.000	
21	  C4	-3.174	-7.476	19.527	C.2	1	SAM264	0.000	
22	  C5	-2.328	-8.427	20.080	C.2	1	SAM264	0.000	
23	  C6	-1.362	-9.004	19.248	C.2	1	SAM264	0.000	
24	  N6	-0.472	-9.926	19.651	N.pl3	1	SAM264	0.000	
25	  N7	-2.668	-8.537	21.416	N.2	1	SAM264	0.000	
26	  C8	-3.708	-7.711	21.611	C.2	1	SAM264	0.000	
27	  N9	-4.057	-7.014	20.474	N.2	1	SAM264	0.000	
@<TRIPOS>BOND
1 1 2 1
2 2 3 1
3 2 5 1
4 3 4 ar
5 3 17 ar
6 5 6 1
7 6 7 1
8 7 8 1
9 7 9 1
10 9 10 1
11 10 11 1
12 10 12 1
13 11 16 1
14 12 13 1
15 12 14 1
16 14 15 1
17 14 16 1
18 16 27 1
19 18 19 ar
20 18 23 ar
21 19 20 ar
22 20 21 ar
23 21 22 ar
24 21 27 ar
25 22 23 ar
26 22 25 ar
27 23 24 1
28 25 26 ar
29 26 27 ar
@<TRIPOS>SUBSTRUCTURE
1	SAM264	1	GROUP	1 A	SAM
