# created with PyMOL 2.4.0
@<TRIPOS>MOLECULE
temp
50 52 1                 
SMALL
USER_CHARGES
@<TRIPOS>ATOM
1	   N	-5.249	0.707	19.229	N.4	1	SAM1	0.000	
2	  CA	-6.714	0.543	19.572	C.3	1	SAM1	0.000	
3	   C	-7.227	1.797	20.257	C.2	1	SAM1	0.000	
4	   O	-6.453	2.746	20.439	O.co2	1	SAM1	0.000	
5	  CB	-7.010	-0.739	20.344	C.3	1	SAM1	0.000	
6	  CG	-6.395	-0.725	21.749	C.3	1	SAM1	0.000	
7	  SD	-7.024	-2.127	22.762	S.3	1	SAM1	0.000	
8	  CE	-6.669	-1.471	24.401	C.3	1	SAM1	0.000	
9	 C5'	-5.730	-3.383	22.622	C.3	1	SAM1	0.000	
10	 C4'	-5.768	-4.062	21.260	C.3	1	SAM1	0.000	
11	 O4'	-4.639	-4.911	21.134	O.3	1	SAM1	0.000	
12	 C3'	-7.031	-4.919	21.052	C.3	1	SAM1	0.000	
13	 O3'	-7.684	-4.540	19.839	O.3	1	SAM1	0.000	
14	 C2'	-6.417	-6.320	20.988	C.3	1	SAM1	0.000	
15	 O2'	-7.089	-7.320	20.216	O.3	1	SAM1	0.000	
16	 C1'	-5.099	-6.003	20.348	C.3	1	SAM1	0.000	
17	 OXT	-8.427	1.801	20.616	O.co2	1	SAM1	0.000	
18	  N1	-1.328	-8.602	17.946	N.2	1	SAM1	0.000	
19	  C2	-2.227	-7.673	17.478	C.2	1	SAM1	0.000	
20	  N3	-3.185	-7.036	18.235	N.2	1	SAM1	0.000	
21	  C4	-3.174	-7.476	19.527	C.2	1	SAM1	0.000	
22	  C5	-2.328	-8.427	20.080	C.2	1	SAM1	0.000	
23	  C6	-1.362	-9.004	19.248	C.2	1	SAM1	0.000	
24	  N6	-0.472	-9.926	19.651	N.pl3	1	SAM1	0.000	
25	  N7	-2.668	-8.537	21.416	N.2	1	SAM1	0.000	
26	  C8	-3.708	-7.711	21.611	C.2	1	SAM1	0.000	
27	  N9	-4.057	-7.014	20.474	N.2	1	SAM1	0.000	
28	  HA	-7.269	0.423	18.642	 H	1	SAM1	0.000	
29	 HB1	-6.601	-1.584	19.790	 H	1	SAM1	0.000	
30	 HB2	-8.090	-0.852	20.435	 H	1	SAM1	0.000	
31	 HG1	-6.652	0.213	22.241	 H	1	SAM1	0.000	
32	 HG2	-5.311	-0.805	21.664	 H	1	SAM1	0.000	
33	 HE1	-7.383	-0.682	24.639	 H	1	SAM1	0.000	
34	 HE2	-5.658	-1.064	24.418	 H	1	SAM1	0.000	
35	 HE3	-6.751	-2.270	25.138	 H	1	SAM1	0.000	
36	  H1	-4.715	0.820	20.079	 H	1	SAM1	0.000	
37	  H2	-5.129	1.523	18.645	 H	1	SAM1	0.000	
38	  H2	-2.178	-7.422	16.429	 H	1	SAM1	0.000	
39	  H3	-4.925	-0.112	18.734	 H	1	SAM1	0.000	
40	  H8	-4.217	-7.604	22.558	 H	1	SAM1	0.000	
41	 H1'	-5.259	-5.865	19.279	 H	1	SAM1	0.000	
42	 H2'	-6.426	-6.778	21.977	 H	1	SAM1	0.000	
43	 H2'	-7.966	-7.433	20.589	 H	1	SAM1	0.000	
44	 H3'	-7.803	-4.825	21.816	 H	1	SAM1	0.000	
45	 H3'	-8.417	-5.145	19.703	 H	1	SAM1	0.000	
46	 H4'	-5.769	-3.270	20.511	 H	1	SAM1	0.000	
47	 H61	-0.474	-10.245	20.610	 H	1	SAM1	0.000	
48	 H62	0.199	-10.301	18.996	 H	1	SAM1	0.000	
49	H5'1	-5.878	-4.134	23.398	 H	1	SAM1	0.000	
50	H5'2	-4.758	-2.909	22.756	 H	1	SAM1	0.000	
@<TRIPOS>BOND
1 1 2 1
2 1 36 1
3 1 37 1
4 1 39 1
5 2 3 1
6 2 5 1
7 2 28 1
8 3 4 ar
9 3 17 ar
10 5 6 1
11 5 29 1
12 5 30 1
13 6 7 1
14 6 31 1
15 6 32 1
16 7 8 1
17 7 9 1
18 8 33 1
19 8 34 1
20 8 35 1
21 9 10 1
22 9 49 1
23 9 50 1
24 10 11 1
25 10 12 1
26 10 46 1
27 11 16 1
28 12 13 1
29 12 14 1
30 12 44 1
31 13 45 1
32 14 15 1
33 14 16 1
34 14 42 1
35 15 43 1
36 16 27 1
37 16 41 1
38 18 19 ar
39 18 23 ar
40 19 20 ar
41 19 38 1
42 20 21 ar
43 21 22 ar
44 21 27 ar
45 22 23 ar
46 22 25 ar
47 23 24 1
48 24 47 1
49 24 48 1
50 25 26 ar
51 26 27 ar
52 26 40 1
@<TRIPOS>SUBSTRUCTURE
1	SAM1	1	GROUP	1 A	SAM
