# created with PyMOL 2.5.0
@<TRIPOS>MOLECULE
3PFG
31 33 1                 
SMALL
USER_CHARGES
@<TRIPOS>ATOM
1	  CG	-7.376	0.326	28.949	C.2	1	TLO301	0.000	
2	 CD1	-7.414	-0.803	29.778	C.2	1	TLO301	0.000	
3	 CD2	-6.546	0.386	27.851	C.2	1	TLO301	0.000	
4	 CE1	-6.609	-1.902	29.529	C.2	1	TLO301	0.000	
5	 CE2	-5.750	-0.719	27.603	C.2	1	TLO301	0.000	
6	  CZ	-5.780	-1.843	28.416	C.2	1	TLO301	0.000	
7	  PA	-9.358	1.816	32.709	P.3	1	TLO301	0.000	
8	  PB	-7.760	2.499	30.318	P.3	1	TLO301	0.000	
9	 C5'	-8.262	3.661	34.241	C.3	1	TLO301	0.000	
10	 O5'	-9.294	3.308	33.278	O.3	1	TLO301	0.000	
11	 C4'	-8.106	5.163	34.246	C.3	1	TLO301	0.000	
12	 O4'	-7.271	5.478	35.366	O.3	1	TLO301	0.000	
13	 C3'	-7.389	5.598	33.006	C.3	1	TLO301	0.000	
14	 O3'	-7.808	6.984	32.817	O.3	1	TLO301	0.000	
15	 C2'	-5.933	5.607	33.454	C.3	1	TLO301	0.000	
16	 C1'	-6.015	5.933	34.963	C.3	1	TLO301	0.000	
17	  N1	-4.972	5.207	35.692	N.2	1	TLO301	0.000	
18	 O1A	-9.073	0.749	33.750	O.co2	1	TLO301	0.000	
19	 O1B	-6.299	2.738	30.328	O.co2	1	TLO301	0.000	
20	  C2	-3.884	5.847	36.170	C.2	1	TLO301	0.000	
21	  O2	-3.785	7.106	36.098	O.2	1	TLO301	0.000	
22	 O2A	-10.606	1.699	31.858	O.co2	1	TLO301	0.000	
23	 O2B	-8.670	3.709	30.151	O.co2	1	TLO301	0.000	
24	  N3	-2.869	5.168	36.776	N.2	1	TLO301	0.000	
25	 O3A	-8.074	1.797	31.740	O.3	1	TLO301	0.000	
26	 O3B	-8.186	1.390	29.247	O.3	1	TLO301	0.000	
27	  C4	-2.947	3.806	36.856	C.2	1	TLO301	0.000	
28	  O4	-1.961	3.253	37.380	O.2	1	TLO301	0.000	
29	  C5	-4.059	3.108	36.354	C.2	1	TLO301	0.000	
30	 C5M	-4.093	1.586	36.515	C.3	1	TLO301	0.000	
31	  C6	-5.057	3.859	35.752	C.2	1	TLO301	0.000	
@<TRIPOS>BOND
1 1 2 ar
2 1 3 ar
3 1 26 1
4 2 4 ar
5 3 5 ar
6 4 6 ar
7 5 6 ar
8 7 10 1
9 7 18 1
10 7 22 2
11 7 25 1
12 8 19 1
13 8 23 2
14 8 25 1
15 8 26 1
16 9 10 1
17 9 11 1
18 11 12 1
19 11 13 1
20 12 16 1
21 13 14 1
22 13 15 1
23 15 16 1
24 16 17 1
25 17 20 ar
26 17 31 ar
27 20 21 2
28 20 24 ar
29 24 27 ar
30 27 28 2
31 27 29 ar
32 29 30 1
33 29 31 ar
@<TRIPOS>SUBSTRUCTURE
1	TLO301	1	GROUP	1 A	TLO
