@<TRIPOS>MOLECULE
3PFG.A
49 51 1 0 0 
SMALL
USER_CHARGES


@<TRIPOS>ATOM
  1 CG      -7.3760     0.3260    28.9490 C.ar  1 TLO   0.0825 
  2 CD1     -7.4140    -0.8030    29.7780 C.ar  1 TLO  -0.1500 
  3 HD1     -8.0827    -0.8164    30.6259 H     1 TLO   0.1500 
  4 CD2     -6.5460     0.3860    27.8510 C.ar  1 TLO  -0.1500 
  5 HD2     -6.5177     1.2564    27.2122 H     1 TLO   0.1500 
  6 CE1     -6.6090    -1.9020    29.5290 C.ar  1 TLO  -0.1500 
  7 HE1     -6.6251    -2.7687    30.1732 H     1 TLO   0.1500 
  8 CE2     -5.7500    -0.7190    27.6030 C.ar  1 TLO  -0.1500 
  9 HE2     -5.0859    -0.7059    26.7514 H     1 TLO   0.1500 
 10 CZ      -5.7800    -1.8430    28.4160 C.ar  1 TLO  -0.1500 
 11 HZ      -5.1481    -2.6863    28.1794 H     1 TLO   0.1500 
 12 PA      -9.3580     1.8160    32.7090 P.3   1 TLO   1.4424 
 13 PB      -7.7600     2.4990    30.3180 P.3   1 TLO   1.4424 
 14 C5'     -8.2620     3.6610    34.2410 C.3   1 TLO   0.1200 
 15 H5'1    -7.3188     3.1942    33.9571 H     1 TLO   0.0800 
 16 H5'2    -8.5527     3.3181    35.2340 H     1 TLO   0.0800 
 17 O5'     -9.2940     3.3080    33.2780 O.3   1 TLO  -0.5512 
 18 C4'     -8.1060     5.1630    34.2460 C.3   1 TLO   0.2000 
 19 H4'     -9.0780     5.6538    34.2963 H     1 TLO   0.0800 
 20 O4'     -7.2710     5.4780    35.3660 O.3   1 TLO  -0.5600 
 21 C3'     -7.3890     5.5980    33.0060 C.3   1 TLO   0.2000 
 22 H3'     -7.5601     4.9993    32.1113 H     1 TLO   0.0800 
 23 O3'     -7.8080     6.9840    32.8170 O.3   1 TLO  -0.6800 
 24 H3'     -8.7461     6.9784    32.6131 H     1 TLO   0.4000 
 25 C2'     -5.9330     5.6070    33.4540 C.3   1 TLO  -0.1600 
 26 H2'1    -5.3673     6.3716    32.9215 H     1 TLO   0.0800 
 27 H2'2    -5.4704     4.6335    33.2914 H     1 TLO   0.0800 
 28 C1'     -6.0150     5.9330    34.9630 C.3   1 TLO   0.5001 
 29 H1'     -5.8758     6.9963    35.1583 H     1 TLO   0.0800 
 30 N1      -4.9720     5.2070    35.6920 N.am  1 TLO  -0.4691 
 31 O1A     -9.0730     0.7490    33.7500 O.co2 1 TLO  -0.9500 
 32 O1B     -6.2990     2.7380    30.3280 O.co2 1 TLO  -0.9500 
 33 C2      -3.8840     5.8470    36.1700 C.2   1 TLO   0.6900 
 34 O2      -3.7850     7.1060    36.0980 O.2   1 TLO  -0.5700 
 35 O2A    -10.6060     1.6990    31.8580 O.co2 1 TLO  -0.9500 
 36 O2B     -8.6700     3.7090    30.1510 O.co2 1 TLO  -0.9500 
 37 N3      -2.8690     5.1680    36.7760 N.am  1 TLO  -0.4900 
 38 H3      -2.0752     5.6618    37.1582 H     1 TLO   0.3700 
 39 O3A     -8.0740     1.7970    31.7400 O.3   1 TLO  -0.5424 
 40 O3B     -8.1860     1.3900    29.2470 O.3   1 TLO  -0.3537 
 41 C4      -2.9470     3.8060    36.8560 C.2   1 TLO   0.6156 
 42 O4      -1.9610     3.2530    37.3800 O.2   1 TLO  -0.5700 
 43 C5      -4.0590     3.1080    36.3540 C.2   1 TLO  -0.1238 
 44 C5M     -4.0930     1.5860    36.5150 C.3   1 TLO  -0.1018 
 45 H5M1    -3.6292     1.1183    35.6465 H     1 TLO   0.0800 
 46 H5M2    -5.1274     1.2525    36.5982 H     1 TLO   0.0800 
 47 H5M3    -3.5466     1.3035    37.4149 H     1 TLO   0.0800 
 48 C6      -5.0570     3.8590    35.7520 C.2   1 TLO  -0.0410 
 49 H6      -5.9144     3.3601    35.3250 H     1 TLO   0.1500 
@<TRIPOS>BOND
  1   1   2  ar  
  2   1   4  ar  
  3   1  40  1   
  4   2   3  1   
  5   2   6  ar  
  6   4   5  1   
  7   4   8  ar  
  8   6   7  1   
  9   6  10  ar  
 10   8   9  1   
 11   8  10  ar  
 12  10  11  1   
 13  12  17  1   
 14  12  31  ar  
 15  12  35  ar  
 16  12  39  1   
 17  13  32  ar  
 18  13  36  ar  
 19  13  39  1   
 20  13  40  1   
 21  14  15  1   
 22  14  16  1   
 23  14  17  1   
 24  14  18  1   
 25  18  19  1   
 26  18  20  1   
 27  18  21  1   
 28  20  28  1   
 29  21  22  1   
 30  21  23  1   
 31  21  25  1   
 32  23  24  1   
 33  25  26  1   
 34  25  27  1   
 35  25  28  1   
 36  28  29  1   
 37  28  30  1   
 38  30  33  am  
 39  30  48  1   
 40  33  34  2   
 41  33  37  am  
 42  37  38  1   
 43  37  41  am  
 44  41  42  2   
 45  41  43  1   
 46  43  44  1   
 47  43  48  2   
 48  44  45  1   
 49  44  46  1   
 50  44  47  1   
 51  48  49  1   
@<TRIPOS>SUBSTRUCTURE
  1 TLO  14 GROUP 4 A **** 0

# MOE 2022.02 (io_trps.svl 2020.11)
