# created with PyMOL 2.5.2
@<TRIPOS>MOLECULE
1JG4
27 29 1                 
SMALL
USER_CHARGES
@<TRIPOS>ATOM
1	   N	33.589	48.147	13.155	N.3	1	SAM500	0.000	
2	  CA	32.578	49.115	13.388	C.3	1	SAM500	0.000	
3	   C	32.710	50.232	12.373	C.2	1	SAM500	0.000	
4	   O	33.614	50.246	11.478	O.co2	1	SAM500	0.000	
5	  CB	32.793	49.416	14.822	C.3	1	SAM500	0.000	
6	  CG	32.243	48.837	16.066	C.3	1	SAM500	0.000	
7	  SD	30.452	48.858	16.452	S.3	1	SAM500	0.000	
8	  CE	30.234	49.690	17.973	C.3	1	SAM500	0.000	
9	 C5'	30.290	47.114	16.447	C.3	1	SAM500	0.000	
10	 C4'	29.044	46.318	16.489	C.3	1	SAM500	0.000	
11	 O4'	28.923	44.989	16.495	O.3	1	SAM500	0.000	
12	 C3'	27.729	47.098	16.543	C.3	1	SAM500	0.000	
13	 O3'	27.361	47.813	15.411	O.3	1	SAM500	0.000	
14	 C2'	26.828	45.888	17.049	C.3	1	SAM500	0.000	
15	 O2'	25.496	45.857	16.725	O.3	1	SAM500	0.000	
16	 C1'	27.573	44.707	16.538	C.3	1	SAM500	0.000	
17	 OXT	31.885	51.161	12.444	O.co2	1	SAM500	0.000	
18	  N1	27.262	39.653	15.483	N.2	1	SAM500	0.000	
19	  C2	27.615	40.715	14.684	C.2	1	SAM500	0.000	
20	  N3	27.859	41.994	15.053	N.2	1	SAM500	0.000	
21	  C4	27.738	42.276	16.408	C.2	1	SAM500	0.000	
22	  C5	27.364	41.253	17.360	C.2	1	SAM500	0.000	
23	  C6	27.130	39.905	16.824	C.2	1	SAM500	0.000	
24	  N6	26.785	38.848	17.572	N.pl3	1	SAM500	0.000	
25	  N7	27.292	41.697	18.583	N.2	1	SAM500	0.000	
26	  C8	27.627	42.948	18.343	C.2	1	SAM500	0.000	
27	  N9	27.931	43.436	17.105	N.pl3	1	SAM500	0.000	
@<TRIPOS>BOND
1 1 2 1
2 2 3 1
3 2 5 1
4 3 4 ar
5 3 17 ar
6 5 6 1
7 6 7 1
8 7 8 1
9 7 9 1
10 9 10 1
11 10 11 1
12 10 12 1
13 11 16 1
14 12 13 1
15 12 14 1
16 14 15 1
17 14 16 1
18 16 27 1
19 18 19 ar
20 18 23 ar
21 19 20 ar
22 20 21 ar
23 21 22 ar
24 21 27 1
25 22 23 ar
26 22 25 1
27 23 24 1
28 26 27 1
29 25 26 2
@<TRIPOS>SUBSTRUCTURE
1	SAM500	1	GROUP	1 A	SAM
