# created with PyMOL 2.4.0
@<TRIPOS>MOLECULE
temp
50 52 1                 
SMALL
USER_CHARGES
@<TRIPOS>ATOM
1	   N	33.589	48.147	13.155	N.4	1	SAM1	0.000	
2	  CA	32.578	49.115	13.388	C.3	1	SAM1	0.000	
3	   C	32.710	50.232	12.373	C.2	1	SAM1	0.000	
4	   O	33.614	50.246	11.478	O.co2	1	SAM1	0.000	
5	  CB	32.793	49.416	14.822	C.3	1	SAM1	0.000	
6	  CG	32.243	48.837	16.066	C.3	1	SAM1	0.000	
7	  SD	30.452	48.858	16.452	S.3	1	SAM1	0.000	
8	  CE	30.234	49.690	17.973	C.3	1	SAM1	0.000	
9	 C5'	30.290	47.114	16.447	C.3	1	SAM1	0.000	
10	 C4'	29.044	46.318	16.489	C.3	1	SAM1	0.000	
11	 O4'	28.923	44.989	16.495	O.3	1	SAM1	0.000	
12	 C3'	27.729	47.098	16.543	C.3	1	SAM1	0.000	
13	 O3'	27.361	47.813	15.411	O.3	1	SAM1	0.000	
14	 C2'	26.828	45.888	17.049	C.3	1	SAM1	0.000	
15	 O2'	25.496	45.857	16.725	O.3	1	SAM1	0.000	
16	 C1'	27.573	44.707	16.538	C.3	1	SAM1	0.000	
17	 OXT	31.885	51.161	12.444	O.co2	1	SAM1	0.000	
18	  N1	27.262	39.653	15.483	N.2	1	SAM1	0.000	
19	  C2	27.615	40.715	14.684	C.2	1	SAM1	0.000	
20	  N3	27.859	41.994	15.053	N.2	1	SAM1	0.000	
21	  C4	27.738	42.276	16.408	C.2	1	SAM1	0.000	
22	  C5	27.364	41.253	17.360	C.2	1	SAM1	0.000	
23	  C6	27.130	39.905	16.824	C.2	1	SAM1	0.000	
24	  N6	26.785	38.848	17.572	N.pl3	1	SAM1	0.000	
25	  N7	27.292	41.697	18.583	N.2	1	SAM1	0.000	
26	  C8	27.627	42.948	18.343	C.2	1	SAM1	0.000	
27	  N9	27.931	43.436	17.105	N.pl3	1	SAM1	0.000	
28	  HA	31.536	48.830	13.240	 H	1	SAM1	0.000	
29	 HB1	32.532	50.471	14.899	 H	1	SAM1	0.000	
30	 HB2	33.870	49.298	14.945	 H	1	SAM1	0.000	
31	 HG1	32.736	49.358	16.887	 H	1	SAM1	0.000	
32	 HG2	32.542	47.789	16.070	 H	1	SAM1	0.000	
33	 HE1	30.363	50.762	17.823	 H	1	SAM1	0.000	
34	 HE2	30.971	49.332	18.692	 H	1	SAM1	0.000	
35	 HE3	29.231	49.495	18.353	 H	1	SAM1	0.000	
36	  H1	34.495	48.557	13.333	 H	1	SAM1	0.000	
37	  H2	33.543	47.836	12.195	 H	1	SAM1	0.000	
38	  H2	27.709	40.502	13.630	 H	1	SAM1	0.000	
39	  H3	33.449	47.359	13.771	 H	1	SAM1	0.000	
40	  H8	27.663	43.631	19.179	 H	1	SAM1	0.000	
41	 H1'	26.797	44.585	15.783	 H	1	SAM1	0.000	
42	 H2'	26.712	45.956	18.131	 H	1	SAM1	0.000	
43	 H2'	25.099	46.669	17.050	 H	1	SAM1	0.000	
44	 H3'	27.696	47.988	17.171	 H	1	SAM1	0.000	
45	 H3'	26.502	48.205	15.582	 H	1	SAM1	0.000	
46	 H4'	29.085	46.316	17.578	 H	1	SAM1	0.000	
47	 H61	26.671	38.951	18.570	 H	1	SAM1	0.000	
48	 H62	26.639	37.948	17.138	 H	1	SAM1	0.000	
49	H5'1	30.861	46.781	17.314	 H	1	SAM1	0.000	
50	H5'2	30.793	46.792	15.535	 H	1	SAM1	0.000	
@<TRIPOS>BOND
1 1 2 1
2 1 36 1
3 1 37 1
4 1 39 1
5 2 3 1
6 2 5 1
7 2 28 1
8 3 4 ar
9 3 17 ar
10 5 6 1
11 5 29 1
12 5 30 1
13 6 7 1
14 6 31 1
15 6 32 1
16 7 8 1
17 7 9 1
18 8 33 1
19 8 34 1
20 8 35 1
21 9 10 1
22 9 49 1
23 9 50 1
24 10 11 1
25 10 12 1
26 10 46 1
27 11 16 1
28 12 13 1
29 12 14 1
30 12 44 1
31 13 45 1
32 14 15 1
33 14 16 1
34 14 42 1
35 15 43 1
36 16 27 1
37 16 41 1
38 18 19 ar
39 18 23 ar
40 19 20 ar
41 19 38 1
42 20 21 ar
43 21 22 ar
44 21 27 1
45 22 23 ar
46 22 25 1
47 23 24 1
48 24 47 1
49 24 48 1
50 25 26 2
51 26 27 1
52 26 40 1
@<TRIPOS>SUBSTRUCTURE
1	SAM1	1	GROUP	1 A	SAM
