@<TRIPOS>MOLECULE
1JG4.A
50 52 1 0 0 
SMALL
USER_CHARGES


@<TRIPOS>ATOM
  1 N       33.5890    48.1470    13.1550 N.4   1 SAM  -0.2708 
  2 H1      34.4948    48.5568    13.3327 H     1 SAM   0.2632 
  3 H2      33.5426    47.8360    12.1952 H     1 SAM   0.2632 
  4 H3      33.4492    47.3591    13.7713 H     1 SAM   0.2632 
  5 CA      32.5780    49.1150    13.3880 C.3   1 SAM   0.0402 
  6 HA      31.5363    48.8302    13.2401 H     1 SAM   0.0201 
  7 C       32.7100    50.2320    12.3730 C.2   1 SAM   0.5890 
  8 O       33.6140    50.2460    11.4780 O.co2 1 SAM  -0.5793 
  9 CB      32.7930    49.4160    14.8220 C.3   1 SAM  -0.0057 
 10 HB1     32.5317    50.4714    14.8991 H     1 SAM   0.0251 
 11 HB2     33.8697    49.2984    14.9447 H     1 SAM   0.0251 
 12 CG      32.2430    48.8370    16.0660 C.3   1 SAM   0.0472 
 13 HG1     32.7359    49.3583    16.8866 H     1 SAM   0.0702 
 14 HG2     32.5415    47.7887    16.0701 H     1 SAM   0.0702 
 15 SD      30.4520    48.8580    16.4520 S.3   1 SAM   0.3980 
 16 CE      30.2340    49.6900    17.9730 C.3   1 SAM  -0.2708 
 17 HE1     30.3634    50.7618    17.8226 H     1 SAM   0.1255 
 18 HE2     30.9713    49.3323    18.6917 H     1 SAM   0.1255 
 19 HE3     29.2313    49.4949    18.3534 H     1 SAM   0.1255 
 20 C5'     30.2900    47.1140    16.4470 C.3   1 SAM   0.0040 
 21 H5'1    30.8605    46.7807    17.3139 H     1 SAM   0.0727 
 22 H5'2    30.7933    46.7921    15.5353 H     1 SAM   0.0727 
 23 C4'     29.0440    46.3180    16.4890 C.3   1 SAM   0.2323 
 24 H4'     29.0848    46.3163    17.5782 H     1 SAM   0.0414 
 25 O4'     28.9230    44.9890    16.4950 O.3   1 SAM  -0.2867 
 26 C3'     27.7290    47.0980    16.5430 C.3   1 SAM  -0.0049 
 27 H3'     27.6957    47.9884    17.1708 H     1 SAM   0.0808 
 28 O3'     27.3610    47.8130    15.4110 O.3   1 SAM  -0.4591 
 29 H3'     26.5017    48.2053    15.5821 H     1 SAM   0.3041 
 30 C2'     26.8280    45.8880    17.0490 C.3   1 SAM   0.2891 
 31 H2'     26.7125    45.9560    18.1307 H     1 SAM   0.0526 
 32 O2'     25.4960    45.8570    16.7250 O.3   1 SAM  -0.4681 
 33 H2'     25.0993    46.6687    17.0497 H     1 SAM   0.3123 
 34 C1'     27.5730    44.7070    16.5380 C.3   1 SAM  -0.0458 
 35 H1'     26.7968    44.5850    15.7825 H     1 SAM   0.1228 
 36 OXT     31.8850    51.1610    12.4440 O.co2 1 SAM  -0.5793 
 37 N1      27.2620    39.6530    15.4830 N.ar  1 SAM  -0.6469 
 38 C2      27.6150    40.7150    14.6840 C.ar  1 SAM   0.5171 
 39 H2      27.7094    40.5016    13.6295 H     1 SAM  -0.0031 
 40 N3      27.8590    41.9940    15.0530 N.ar  1 SAM  -0.5690 
 41 C4      27.7380    42.2760    16.4080 C.ar  1 SAM   0.3711 
 42 C5      27.3640    41.2530    17.3600 C.ar  1 SAM   0.1382 
 43 C6      27.1300    39.9050    16.8240 C.ar  1 SAM   0.5748 
 44 N6      26.7850    38.8480    17.5720 N.pl3 1 SAM  -0.6717 
 45 H61     26.6706    38.9514    18.5702 H     1 SAM   0.3091 
 46 H62     26.6393    37.9479    17.1376 H     1 SAM   0.3091 
 47 N7      27.2920    41.6970    18.5830 N.2   1 SAM  -0.5519 
 48 C8      27.6270    42.9480    18.3430 C.2   1 SAM   0.2577 
 49 H8      27.6635    43.6310    19.1788 H     1 SAM   0.0749 
 50 N9      27.9310    43.4360    17.1050 N.pl3 1 SAM  -0.1745 
@<TRIPOS>BOND
  1   1   2  1   
  2   1   3  1   
  3   1   4  1   
  4   1   5  1   
  5   5   6  1   
  6   5   7  1   
  7   5   9  1   
  8   7   8  ar  
  9   7  36  ar  
 10   9  10  1   
 11   9  11  1   
 12   9  12  1   
 13  12  13  1   
 14  12  14  1   
 15  12  15  1   
 16  15  16  1   
 17  15  20  1   
 18  16  17  1   
 19  16  18  1   
 20  16  19  1   
 21  20  21  1   
 22  20  22  1   
 23  20  23  1   
 24  23  24  1   
 25  23  25  1   
 26  23  26  1   
 27  25  34  1   
 28  26  27  1   
 29  26  28  1   
 30  26  30  1   
 31  28  29  1   
 32  30  31  1   
 33  30  32  1   
 34  30  34  1   
 35  32  33  1   
 36  34  35  1   
 37  34  50  1   
 38  37  38  ar  
 39  37  43  ar  
 40  38  39  1   
 41  38  40  ar  
 42  40  41  ar  
 43  41  42  ar  
 44  41  50  1   
 45  42  43  ar  
 46  42  47  1   
 47  43  44  1   
 48  44  45  1   
 49  44  46  1   
 50  47  48  2   
 51  48  49  1   
 52  48  50  1   
@<TRIPOS>SUBSTRUCTURE
  1 SAM  25 GROUP 4 A **** 0

# MOE 2022.02 (io_trps.svl 2020.11)
