# created with PyMOL 2.4.0
@<TRIPOS>MOLECULE
temp
50 52 1                 
SMALL
USER_CHARGES
@<TRIPOS>ATOM
1	   N	60.576	61.614	68.526	N.4	1	SAM1	0.000	
2	  CA	60.289	60.334	67.883	C.3	1	SAM1	0.000	
3	   C	61.452	59.359	68.028	C.2	1	SAM1	0.000	
4	   O	61.682	58.505	67.167	O.co2	1	SAM1	0.000	
5	  CB	59.859	60.535	66.426	C.3	1	SAM1	0.000	
6	  CG	58.895	61.710	66.274	C.3	1	SAM1	0.000	
7	  SD	57.989	61.725	64.702	S.3	1	SAM1	0.000	
8	  CE	59.197	62.599	63.687	C.3	1	SAM1	0.000	
9	 C5'	56.734	63.011	64.961	C.3	1	SAM1	0.000	
10	 C4'	55.691	62.600	65.996	C.3	1	SAM1	0.000	
11	 O4'	54.897	63.713	66.382	O.3	1	SAM1	0.000	
12	 C3'	54.736	61.541	65.454	C.3	1	SAM1	0.000	
13	 O3'	54.794	60.390	66.271	O.3	1	SAM1	0.000	
14	 C2'	53.363	62.185	65.540	C.3	1	SAM1	0.000	
15	 O2'	52.359	61.284	65.937	O.3	1	SAM1	0.000	
16	 C1'	53.570	63.263	66.589	C.3	1	SAM1	0.000	
17	 OXT	62.182	59.409	69.025	O.co2	1	SAM1	0.000	
18	  N1	49.863	65.712	69.306	N.2	1	SAM1	0.000	
19	  C2	50.694	64.694	69.707	C.2	1	SAM1	0.000	
20	  N3	51.621	64.176	68.825	N.2	1	SAM1	0.000	
21	  C4	51.719	64.668	67.571	C.2	1	SAM1	0.000	
22	  C5	50.887	65.699	67.149	C.2	1	SAM1	0.000	
23	  C6	49.949	66.224	68.033	C.2	1	SAM1	0.000	
24	  N6	49.132	67.208	67.668	N.pl3	1	SAM1	0.000	
25	  N7	51.210	65.984	65.868	N.2	1	SAM1	0.000	
26	  C8	52.212	65.152	65.474	C.2	1	SAM1	0.000	
27	  N9	52.539	64.330	66.525	N.2	1	SAM1	0.000	
28	  HA	59.445	59.877	68.400	 H	1	SAM1	0.000	
29	 HB1	59.367	59.628	66.075	 H	1	SAM1	0.000	
30	 HB2	60.745	60.725	65.820	 H	1	SAM1	0.000	
31	 HG1	59.468	62.634	66.348	 H	1	SAM1	0.000	
32	 HG2	58.170	61.666	67.087	 H	1	SAM1	0.000	
33	 HE1	60.025	61.930	63.451	 H	1	SAM1	0.000	
34	 HE2	59.573	63.464	64.233	 H	1	SAM1	0.000	
35	 HE3	58.723	62.931	62.763	 H	1	SAM1	0.000	
36	  H1	61.357	62.056	68.062	 H	1	SAM1	0.000	
37	  H2	60.806	61.459	69.497	 H	1	SAM1	0.000	
38	  H2	50.622	64.300	70.710	 H	1	SAM1	0.000	
39	  H3	59.764	62.212	68.463	 H	1	SAM1	0.000	
40	  H8	52.673	65.140	64.498	 H	1	SAM1	0.000	
41	 H1'	53.447	62.887	67.605	 H	1	SAM1	0.000	
42	 H2'	53.020	62.558	64.575	 H	1	SAM1	0.000	
43	 H2'	52.614	60.923	66.789	 H	1	SAM1	0.000	
44	 H3'	54.979	61.230	64.438	 H	1	SAM1	0.000	
45	 H3'	54.151	59.762	65.934	 H	1	SAM1	0.000	
46	 H4'	56.249	62.201	66.843	 H	1	SAM1	0.000	
47	 H61	49.185	67.588	66.734	 H	1	SAM1	0.000	
48	 H62	48.458	67.575	68.325	 H	1	SAM1	0.000	
49	H5'1	56.231	63.206	64.014	 H	1	SAM1	0.000	
50	H5'2	57.229	63.920	65.303	 H	1	SAM1	0.000	
@<TRIPOS>BOND
1 1 2 1
2 1 36 1
3 1 37 1
4 1 39 1
5 2 3 1
6 2 5 1
7 2 28 1
8 3 4 ar
9 3 17 ar
10 5 6 1
11 5 29 1
12 5 30 1
13 6 7 1
14 6 31 1
15 6 32 1
16 7 8 1
17 7 9 1
18 8 33 1
19 8 34 1
20 8 35 1
21 9 10 1
22 9 49 1
23 9 50 1
24 10 11 1
25 10 12 1
26 10 46 1
27 11 16 1
28 12 13 1
29 12 14 1
30 12 44 1
31 13 45 1
32 14 15 1
33 14 16 1
34 14 42 1
35 15 43 1
36 16 27 1
37 16 41 1
38 18 19 ar
39 18 23 ar
40 19 20 ar
41 19 38 1
42 20 21 ar
43 21 22 ar
44 21 27 ar
45 22 23 ar
46 22 25 ar
47 23 24 1
48 24 47 1
49 24 48 1
50 25 26 ar
51 26 27 ar
52 26 40 1
@<TRIPOS>SUBSTRUCTURE
1	SAM1	1	GROUP	1 A	SAM
