# created with PyMOL 2.5.0
@<TRIPOS>MOLECULE
3R24
27 29 1                 
SMALL
USER_CHARGES
@<TRIPOS>ATOM
1	   N	60.576	61.614	68.526	N.3	1	SAM302	0.000	
2	  CA	60.289	60.334	67.883	C.3	1	SAM302	0.000	
3	   C	61.452	59.359	68.028	C.2	1	SAM302	0.000	
4	   O	61.682	58.505	67.167	O.co2	1	SAM302	0.000	
5	  CB	59.859	60.535	66.426	C.3	1	SAM302	0.000	
6	  CG	58.895	61.710	66.274	C.3	1	SAM302	0.000	
7	  SD	57.989	61.725	64.702	S.3	1	SAM302	0.000	
8	  CE	59.197	62.599	63.687	C.3	1	SAM302	0.000	
9	 C5'	56.734	63.011	64.961	C.3	1	SAM302	0.000	
10	 C4'	55.691	62.600	65.996	C.3	1	SAM302	0.000	
11	 O4'	54.897	63.713	66.382	O.3	1	SAM302	0.000	
12	 C3'	54.736	61.541	65.454	C.3	1	SAM302	0.000	
13	 O3'	54.794	60.390	66.271	O.3	1	SAM302	0.000	
14	 C2'	53.363	62.185	65.540	C.3	1	SAM302	0.000	
15	 O2'	52.359	61.284	65.937	O.3	1	SAM302	0.000	
16	 C1'	53.570	63.263	66.589	C.3	1	SAM302	0.000	
17	 OXT	62.182	59.409	69.025	O.co2	1	SAM302	0.000	
18	  N1	49.863	65.712	69.306	N.2	1	SAM302	0.000	
19	  C2	50.694	64.694	69.707	C.2	1	SAM302	0.000	
20	  N3	51.621	64.176	68.825	N.2	1	SAM302	0.000	
21	  C4	51.719	64.668	67.571	C.2	1	SAM302	0.000	
22	  C5	50.887	65.699	67.149	C.2	1	SAM302	0.000	
23	  C6	49.949	66.224	68.033	C.2	1	SAM302	0.000	
24	  N6	49.132	67.208	67.668	N.pl3	1	SAM302	0.000	
25	  N7	51.210	65.984	65.868	N.2	1	SAM302	0.000	
26	  C8	52.212	65.152	65.474	C.2	1	SAM302	0.000	
27	  N9	52.539	64.330	66.525	N.2	1	SAM302	0.000	
@<TRIPOS>BOND
1 1 2 1
2 2 3 1
3 2 5 1
4 3 4 ar
5 3 17 ar
6 5 6 1
7 6 7 1
8 7 8 1
9 7 9 1
10 9 10 1
11 10 11 1
12 10 12 1
13 11 16 1
14 12 13 1
15 12 14 1
16 14 15 1
17 14 16 1
18 16 27 1
19 18 19 ar
20 18 23 ar
21 19 20 ar
22 20 21 ar
23 21 22 ar
24 21 27 ar
25 22 23 ar
26 22 25 ar
27 23 24 1
28 25 26 ar
29 26 27 ar
@<TRIPOS>SUBSTRUCTURE
1	SAM302	1	GROUP	1 A	SAM
