@<TRIPOS>MOLECULE
3R24.A
51 53 1 0 0 
SMALL
USER_CHARGES


@<TRIPOS>ATOM
  1 N       60.5760    61.6140    68.5260 N.4   1 SAM  -0.8530 
  2 H1      61.3566    62.0563    68.0621 H     1 SAM   0.4500 
  3 H2      60.8055    61.4589    69.4973 H     1 SAM   0.4500 
  4 H3      59.7643    62.2118    68.4632 H     1 SAM   0.4500 
  5 CA      60.2890    60.3340    67.8830 C.3   1 SAM   0.3170 
  6 HA      59.4452    59.8767    68.3997 H     1 SAM   0.0800 
  7 C       61.4520    59.3590    68.0280 C.2   1 SAM   0.9060 
  8 O       61.6820    58.5050    67.1670 O.co2 1 SAM  -0.9000 
  9 CB      59.8590    60.5350    66.4260 C.3   1 SAM  -0.1600 
 10 HB1     59.3670    59.6278    66.0754 H     1 SAM   0.0800 
 11 HB2     60.7449    60.7252    65.8201 H     1 SAM   0.0800 
 12 CG      58.8950    61.7100    66.2740 C.3   1 SAM  -0.1525 
 13 HG1     59.4676    62.6345    66.3481 H     1 SAM   0.0800 
 14 HG2     58.1700    61.6655    67.0867 H     1 SAM   0.0800 
 15 SD      57.9890    61.7250    64.7020 S.3   1 SAM   0.9775 
 16 CE      59.1970    62.5990    63.6870 C.3   1 SAM  -0.2325 
 17 HE1     60.0249    61.9304    63.4510 H     1 SAM   0.0800 
 18 HE2     59.5729    63.4639    64.2335 H     1 SAM   0.0800 
 19 HE3     58.7232    62.9308    62.7631 H     1 SAM   0.0800 
 20 C5'     56.7340    63.0110    64.9610 C.3   1 SAM  -0.1525 
 21 H5'1    56.2307    63.2058    64.0140 H     1 SAM   0.0800 
 22 H5'2    57.2286    63.9200    65.3033 H     1 SAM   0.0800 
 23 C4'     55.6910    62.6000    65.9960 C.3   1 SAM   0.2000 
 24 H4'     56.2486    62.2011    66.8434 H     1 SAM   0.0800 
 25 O4'     54.8970    63.7130    66.3820 O.3   1 SAM  -0.5600 
 26 C3'     54.7360    61.5410    65.4540 C.3   1 SAM   0.2000 
 27 H3'     54.9790    61.2297    64.4380 H     1 SAM   0.0800 
 28 O3'     54.7940    60.3900    66.2710 O.3   1 SAM  -0.6800 
 29 H3'     54.1512    59.7618    65.9336 H     1 SAM   0.4000 
 30 C2'     53.3630    62.1850    65.5400 C.3   1 SAM   0.2000 
 31 H2'     53.0196    62.5584    64.5752 H     1 SAM   0.0800 
 32 O2'     52.3590    61.2840    65.9370 O.3   1 SAM  -0.6800 
 33 H2'     52.6137    60.9226    66.7891 H     1 SAM   0.4000 
 34 C1'     53.5700    63.2630    66.5890 C.3   1 SAM   0.5691 
 35 H1'     53.4473    62.8866    67.6046 H     1 SAM   0.0800 
 36 OXT     62.1820    59.4090    69.0250 O.co2 1 SAM  -0.9000 
 37 N1      49.8630    65.7120    69.3060 N.2   1 SAM  -0.6610 
 38 C2      50.6940    64.6940    69.7070 C.2   1 SAM   0.6010 
 39 H2      50.6221    64.2999    70.7100 H     1 SAM   0.0600 
 40 N3      51.6210    64.1760    68.8250 N.2   1 SAM  -0.6610 
 41 C4      51.7190    64.6680    67.5710 C.2   1 SAM   0.5000 
 42 C5      50.8870    65.6990    67.1490 C.2   1 SAM   0.4500 
 43 C6      49.9490    66.2240    68.0330 C.2   1 SAM   0.6110 
 44 N6      49.1320    67.2080    67.6680 N.2   1 SAM  -0.2000 
 45 H62     48.4583    67.5749    68.3250 H     1 SAM   0.4000 
 46 H61     49.1853    67.5884    66.7339 H     1 SAM   0.4000 
 47 N7      51.2100    65.9840    65.8680 N.2   1 SAM  -0.6960 
 48 C8      52.2120    65.1520    65.4740 C.3   1 SAM   0.4551 
 49 H81     53.0830    65.7388    65.1822 H     1 SAM   0.0800 
 50 H82     51.8787    64.5510    64.6279 H     1 SAM   0.0800 
 51 N9      52.5390    64.3300    66.5250 N.pl3 1 SAM  -0.7882 
@<TRIPOS>BOND
  1   1   2  1   
  2   1   3  1   
  3   1   4  1   
  4   1   5  1   
  5   5   6  1   
  6   5   7  1   
  7   5   9  1   
  8   7   8  ar  
  9   7  36  ar  
 10   9  10  1   
 11   9  11  1   
 12   9  12  1   
 13  12  13  1   
 14  12  14  1   
 15  12  15  1   
 16  15  16  1   
 17  15  20  1   
 18  16  17  1   
 19  16  18  1   
 20  16  19  1   
 21  20  21  1   
 22  20  22  1   
 23  20  23  1   
 24  23  24  1   
 25  23  25  1   
 26  23  26  1   
 27  25  34  1   
 28  26  27  1   
 29  26  28  1   
 30  26  30  1   
 31  28  29  1   
 32  30  31  1   
 33  30  32  1   
 34  30  34  1   
 35  32  33  1   
 36  34  35  1   
 37  34  51  1   
 38  37  38  2   
 39  37  43  1   
 40  38  39  1   
 41  38  40  1   
 42  40  41  2   
 43  41  42  1   
 44  41  51  1   
 45  42  43  1   
 46  42  47  2   
 47  43  44  2   
 48  44  45  1   
 49  44  46  1   
 50  47  48  1   
 51  48  49  1   
 52  48  50  1   
 53  48  51  1   
@<TRIPOS>SUBSTRUCTURE
  1 SAM  25 GROUP 4 A **** 0

# MOE 2022.02 (io_trps.svl 2020.11)
