# created with PyMOL 2.4.0
@<TRIPOS>MOLECULE
6LFE.A
31 31 1                 
SMALL
USER_CHARGES
@<TRIPOS>ATOM
1	 O01	27.444	-12.849	-14.446	O.3	1	EAO1	-0.520	
2	 N02	26.316	-12.262	-14.064	N.pl3	1	EAO1	0.907	
3	 O03	26.383	-11.291	-13.570	O.2	1	EAO1	-0.520	
4	 C04	25.084	-12.972	-14.326	C.2	1	EAO1	0.133	
5	 C05	25.159	-14.094	-15.113	C.2	1	EAO1	-0.150	
6	 C06	24.049	-14.787	-15.416	C.2	1	EAO1	-0.144	
7	 C07	24.080	-16.027	-16.251	C.3	1	EAO1	-0.016	
8	 C08	24.996	-16.486	-17.045	C.3	1	EAO1	0.042	
9	 C09	26.294	-15.792	-17.373	C.2	1	EAO1	0.448	
10	 O10	26.354	-14.946	-18.176	O.2	1	EAO1	-0.570	
11	 C11	27.497	-16.233	-16.657	C.3	1	EAO1	-0.179	
12	 C12	24.775	-17.761	-17.781	C.2	1	EAO1	0.448	
13	 O13	25.581	-18.133	-18.496	O.2	1	EAO1	-0.570	
14	 C14	23.519	-18.509	-17.561	C.3	1	EAO1	-0.179	
15	 C15	22.835	-14.359	-14.939	C.2	1	EAO1	-0.150	
16	 C16	22.750	-13.240	-14.176	C.2	1	EAO1	0.083	
17	 O17	21.579	-12.794	-13.688	O.3	1	EAO1	-0.533	
18	 C18	23.882	-12.557	-13.866	C.2	1	EAO1	-0.171	
19	 O19	23.805	-11.463	-13.096	O.2	1	EAO1	-0.829	
20	 H05	26.116	-14.422	-15.491	 H	1	EAO1	0.150	
21	 H08	25.470	-17.022	-16.222	 H	1	EAO1	0.080	
22	 H15	21.941	-14.917	-15.173	 H	1	EAO1	0.150	
23	 H17	21.640	-12.005	-13.144	 H	1	EAO1	0.450	
24	H071	23.200	-15.937	-16.888	 H	1	EAO1	0.080	
25	H072	23.927	-16.832	-15.532	 H	1	EAO1	0.080	
26	H111	27.233	-17.025	-15.956	 H	1	EAO1	0.080	
27	H112	27.924	-15.392	-16.111	 H	1	EAO1	0.080	
28	H113	28.228	-16.610	-17.372	 H	1	EAO1	0.080	
29	H141	22.898	-17.973	-16.843	 H	1	EAO1	0.080	
30	H142	23.750	-19.501	-17.173	 H	1	EAO1	0.080	
31	H143	22.983	-18.604	-18.505	 H	1	EAO1	0.080	
@<TRIPOS>BOND
1 2 3 2
2 2 4 1
3 4 5 ar
4 4 18 ar
5 5 6 ar
6 5 20 1
7 6 7 1
8 6 15 ar
9 7 8 1
10 7 24 1
11 7 25 1
12 8 9 1
13 8 12 1
14 8 21 1
15 9 10 2
16 9 11 1
17 11 26 1
18 11 27 1
19 11 28 1
20 12 13 2
21 12 14 1
22 14 29 1
23 14 30 1
24 14 31 1
25 15 16 ar
26 15 22 1
27 16 17 1
28 16 18 ar
29 17 23 1
30 18 19 1
31 1 2 1
@<TRIPOS>SUBSTRUCTURE
1	EAO1	1	GROUP	1 A	EAO
