@<TRIPOS>MOLECULE
6LFE.A
31 31 1 0 0 
SMALL
USER_CHARGES


@<TRIPOS>ATOM
  1 O01     27.4440   -12.8490   -14.4460 O.2   1 EAO  -0.5200 
  2 N02     26.3160   -12.2620   -14.0640 N.pl3 1 EAO   0.9070 
  3 O03     26.3830   -11.2910   -13.5700 O.2   1 EAO  -0.5200 
  4 C04     25.0840   -12.9720   -14.3260 C.ar  1 EAO   0.1330 
  5 C05     25.1590   -14.0940   -15.1130 C.ar  1 EAO  -0.1500 
  6 H05     26.1162   -14.4216   -15.4909 H     1 EAO   0.1500 
  7 C06     24.0490   -14.7870   -15.4160 C.ar  1 EAO  -0.1435 
  8 C07     24.0800   -16.0270   -16.2510 C.3   1 EAO  -0.0165 
  9 H071    23.2003   -15.9371   -16.8883 H     1 EAO   0.0800 
 10 H072    23.9272   -16.8321   -15.5323 H     1 EAO   0.0800 
 11 C08     24.9960   -16.4860   -17.0450 C.3   1 EAO   0.0420 
 12 H08     25.4697   -17.0219   -16.2225 H     1 EAO   0.0800 
 13 C09     26.2940   -15.7920   -17.3730 C.2   1 EAO   0.4480 
 14 O10     26.3540   -14.9460   -18.1760 O.2   1 EAO  -0.5700 
 15 C11     27.4970   -16.2330   -16.6570 C.3   1 EAO  -0.1790 
 16 H111    27.2328   -17.0246   -15.9558 H     1 EAO   0.0800 
 17 H112    27.9239   -15.3916   -16.1111 H     1 EAO   0.0800 
 18 H113    28.2278   -16.6103   -17.3724 H     1 EAO   0.0800 
 19 C12     24.7750   -17.7610   -17.7810 C.2   1 EAO   0.4480 
 20 O13     25.5810   -18.1330   -18.4960 O.2   1 EAO  -0.5700 
 21 C14     23.5190   -18.5090   -17.5610 C.3   1 EAO  -0.1790 
 22 H141    22.8983   -17.9735   -16.8426 H     1 EAO   0.0800 
 23 H142    23.7501   -19.5011   -17.1731 H     1 EAO   0.0800 
 24 H143    22.9825   -18.6040   -18.5051 H     1 EAO   0.0800 
 25 C15     22.8350   -14.3590   -14.9390 C.ar  1 EAO  -0.1500 
 26 H15     21.9405   -14.9172   -15.1728 H     1 EAO   0.1500 
 27 C16     22.7500   -13.2400   -14.1760 C.ar  1 EAO   0.0825 
 28 O17     21.5790   -12.7940   -13.6880 O.3   1 EAO  -0.5325 
 29 H17     21.6402   -12.0055   -13.1439 H     1 EAO   0.4500 
 30 C18     23.8820   -12.5570   -13.8660 C.ar  1 EAO  -0.1710 
 31 O19     23.8050   -11.4630   -13.0960 O.3   1 EAO  -0.8290 
@<TRIPOS>BOND
  1   1   2  2   
  2   2   3  2   
  3   2   4  1   
  4   4   5  ar  
  5   4  30  ar  
  6   5   6  1   
  7   5   7  ar  
  8   7   8  1   
  9   7  25  ar  
 10   8   9  1   
 11   8  10  1   
 12   8  11  1   
 13  11  12  1   
 14  11  13  1   
 15  11  19  1   
 16  13  14  2   
 17  13  15  1   
 18  15  16  1   
 19  15  17  1   
 20  15  18  1   
 21  19  20  2   
 22  19  21  1   
 23  21  22  1   
 24  21  23  1   
 25  21  24  1   
 26  25  26  1   
 27  25  27  ar  
 28  27  28  1   
 29  27  30  ar  
 30  28  29  1   
 31  30  31  1   
@<TRIPOS>SUBSTRUCTURE
  1 EAO   5 GROUP 4 A **** 0

# MOE 2022.02 (io_trps.svl 2020.11)
