# created with PyMOL 2.4.0
@<TRIPOS>MOLECULE
temp
50 52 1                 
SMALL
USER_CHARGES
@<TRIPOS>ATOM
1	   N	21.641	-5.557	-12.416	N.4	1	SAM1	0.000	
2	  CA	21.566	-5.614	-13.884	C.3	1	SAM1	0.000	
3	   C	20.134	-5.879	-14.306	C.2	1	SAM1	0.000	
4	   O	19.651	-5.240	-15.238	O.co2	1	SAM1	0.000	
5	  CB	22.467	-6.681	-14.502	C.3	1	SAM1	0.000	
6	  CG	23.928	-6.594	-14.065	C.3	1	SAM1	0.000	
7	  SD	24.938	-7.756	-15.027	S.3	1	SAM1	0.000	
8	  CE	24.254	-9.214	-14.304	C.3	1	SAM1	0.000	
9	 C5'	26.503	-7.696	-14.078	C.3	1	SAM1	0.000	
10	 C4'	27.271	-6.385	-14.261	C.3	1	SAM1	0.000	
11	 O4'	28.264	-6.188	-13.253	O.3	1	SAM1	0.000	
12	 C3'	28.026	-6.270	-15.583	C.3	1	SAM1	0.000	
13	 O3'	27.488	-5.170	-16.307	O.3	1	SAM1	0.000	
14	 C2'	29.487	-6.071	-15.212	C.3	1	SAM1	0.000	
15	 O2'	30.234	-5.223	-16.057	O.3	1	SAM1	0.000	
16	 C1'	29.371	-5.476	-13.826	C.3	1	SAM1	0.000	
17	 OXT	19.482	-6.728	-13.707	O.co2	1	SAM1	0.000	
18	  N1	32.132	-3.302	-10.105	N.2	1	SAM1	0.000	
19	  C2	31.182	-2.702	-10.903	C.2	1	SAM1	0.000	
20	  N3	30.574	-3.449	-11.877	N.2	1	SAM1	0.000	
21	  C4	30.901	-4.763	-12.010	C.2	1	SAM1	0.000	
22	  C5	31.859	-5.358	-11.225	C.2	1	SAM1	0.000	
23	  C6	32.502	-4.623	-10.250	C.2	1	SAM1	0.000	
24	  N6	33.447	-5.178	-9.470	N.pl3	1	SAM1	0.000	
25	  N7	31.973	-6.648	-11.623	N.2	1	SAM1	0.000	
26	  C8	31.108	-6.881	-12.636	C.2	1	SAM1	0.000	
27	  N9	30.477	-5.702	-12.903	N.2	1	SAM1	0.000	
28	  HA	21.917	-4.648	-14.248	 H	1	SAM1	0.000	
29	 HB1	22.427	-6.576	-15.586	 H	1	SAM1	0.000	
30	 HB2	22.082	-7.660	-14.217	 H	1	SAM1	0.000	
31	 HG1	24.003	-6.842	-13.006	 H	1	SAM1	0.000	
32	 HG2	24.293	-5.580	-14.227	 H	1	SAM1	0.000	
33	 HE1	23.284	-9.423	-14.756	 H	1	SAM1	0.000	
34	 HE2	24.131	-9.064	-13.231	 H	1	SAM1	0.000	
35	 HE3	24.925	-10.055	-14.479	 H	1	SAM1	0.000	
36	  H1	21.324	-6.434	-12.028	 H	1	SAM1	0.000	
37	  H2	21.054	-4.808	-12.078	 H	1	SAM1	0.000	
38	  H2	30.922	-1.663	-10.763	 H	1	SAM1	0.000	
39	  H3	22.596	-5.390	-12.134	 H	1	SAM1	0.000	
40	  H8	30.947	-7.823	-13.139	 H	1	SAM1	0.000	
41	 H1'	29.305	-4.395	-13.946	 H	1	SAM1	0.000	
42	 H2'	30.038	-7.008	-15.292	 H	1	SAM1	0.000	
43	 H2'	30.222	-5.607	-16.937	 H	1	SAM1	0.000	
44	 H3'	27.933	-7.149	-16.221	 H	1	SAM1	0.000	
45	 H3'	27.999	-5.076	-17.114	 H	1	SAM1	0.000	
46	 H4'	26.476	-5.641	-14.214	 H	1	SAM1	0.000	
47	 H61	33.697	-6.149	-9.593	 H	1	SAM1	0.000	
48	 H62	33.907	-4.624	-8.762	 H	1	SAM1	0.000	
49	H5'1	27.139	-8.518	-14.406	 H	1	SAM1	0.000	
50	H5'2	26.271	-7.816	-13.020	 H	1	SAM1	0.000	
@<TRIPOS>BOND
1 1 2 1
2 1 36 1
3 1 37 1
4 1 39 1
5 2 3 1
6 2 5 1
7 2 28 1
8 3 4 ar
9 3 17 ar
10 5 6 1
11 5 29 1
12 5 30 1
13 6 7 1
14 6 31 1
15 6 32 1
16 7 8 1
17 7 9 1
18 8 33 1
19 8 34 1
20 8 35 1
21 9 10 1
22 9 49 1
23 9 50 1
24 10 11 1
25 10 12 1
26 10 46 1
27 11 16 1
28 12 13 1
29 12 14 1
30 12 44 1
31 13 45 1
32 14 15 1
33 14 16 1
34 14 42 1
35 15 43 1
36 16 27 1
37 16 41 1
38 18 19 ar
39 18 23 ar
40 19 20 ar
41 19 38 1
42 20 21 ar
43 21 22 ar
44 21 27 ar
45 22 23 ar
46 22 25 ar
47 23 24 1
48 24 47 1
49 24 48 1
50 25 26 ar
51 26 27 ar
52 26 40 1
@<TRIPOS>SUBSTRUCTURE
1	SAM1	1	GROUP	1 A	SAM
