# created with PyMOL 2.5.0
@<TRIPOS>MOLECULE
6LFE
27 29 1                 
SMALL
USER_CHARGES
@<TRIPOS>ATOM
1	   N	21.641	-5.557	-12.416	N.3	1	SAM301	0.000	
2	  CA	21.566	-5.614	-13.884	C.3	1	SAM301	0.000	
3	   C	20.134	-5.879	-14.306	C.2	1	SAM301	0.000	
4	   O	19.651	-5.240	-15.238	O.co2	1	SAM301	0.000	
5	  CB	22.467	-6.681	-14.502	C.3	1	SAM301	0.000	
6	  CG	23.928	-6.594	-14.065	C.3	1	SAM301	0.000	
7	  SD	24.938	-7.756	-15.027	S.3	1	SAM301	0.000	
8	  CE	24.254	-9.214	-14.304	C.3	1	SAM301	0.000	
9	 C5'	26.503	-7.696	-14.078	C.3	1	SAM301	0.000	
10	 C4'	27.271	-6.385	-14.261	C.3	1	SAM301	0.000	
11	 O4'	28.264	-6.188	-13.253	O.3	1	SAM301	0.000	
12	 C3'	28.026	-6.270	-15.583	C.3	1	SAM301	0.000	
13	 O3'	27.488	-5.170	-16.307	O.3	1	SAM301	0.000	
14	 C2'	29.487	-6.071	-15.212	C.3	1	SAM301	0.000	
15	 O2'	30.234	-5.223	-16.057	O.3	1	SAM301	0.000	
16	 C1'	29.371	-5.476	-13.826	C.3	1	SAM301	0.000	
17	 OXT	19.482	-6.728	-13.707	O.co2	1	SAM301	0.000	
18	  N1	32.132	-3.302	-10.105	N.2	1	SAM301	0.000	
19	  C2	31.182	-2.702	-10.903	C.2	1	SAM301	0.000	
20	  N3	30.574	-3.449	-11.877	N.2	1	SAM301	0.000	
21	  C4	30.901	-4.763	-12.010	C.2	1	SAM301	0.000	
22	  C5	31.859	-5.358	-11.225	C.2	1	SAM301	0.000	
23	  C6	32.502	-4.623	-10.250	C.2	1	SAM301	0.000	
24	  N6	33.447	-5.178	-9.470	N.pl3	1	SAM301	0.000	
25	  N7	31.973	-6.648	-11.623	N.2	1	SAM301	0.000	
26	  C8	31.108	-6.881	-12.636	C.2	1	SAM301	0.000	
27	  N9	30.477	-5.702	-12.903	N.2	1	SAM301	0.000	
@<TRIPOS>BOND
1 1 2 1
2 2 3 1
3 2 5 1
4 3 4 ar
5 3 17 ar
6 5 6 1
7 6 7 1
8 7 8 1
9 7 9 1
10 9 10 1
11 10 11 1
12 10 12 1
13 11 16 1
14 12 13 1
15 12 14 1
16 14 15 1
17 14 16 1
18 16 27 1
19 18 19 ar
20 18 23 ar
21 19 20 ar
22 20 21 ar
23 21 22 ar
24 21 27 ar
25 22 23 ar
26 22 25 ar
27 23 24 1
28 25 26 ar
29 26 27 ar
@<TRIPOS>SUBSTRUCTURE
1	SAM301	1	GROUP	1 A	SAM
