@<TRIPOS>MOLECULE
6LFE.A
51 53 1 0 0 
SMALL
USER_CHARGES


@<TRIPOS>ATOM
  1 N       21.6410    -5.5570   -12.4160 N.4   1 SAM  -0.8530 
  2 H1      21.3241    -6.4342   -12.0284 H     1 SAM   0.4500 
  3 H2      21.0541    -4.8079   -12.0777 H     1 SAM   0.4500 
  4 H3      22.5963    -5.3898   -12.1339 H     1 SAM   0.4500 
  5 CA      21.5660    -5.6140   -13.8840 C.3   1 SAM   0.3170 
  6 HA      21.9170    -4.6485   -14.2483 H     1 SAM   0.0800 
  7 C       20.1340    -5.8790   -14.3060 C.2   1 SAM   0.9060 
  8 O       19.6510    -5.2400   -15.2380 O.co2 1 SAM  -0.9000 
  9 CB      22.4670    -6.6810   -14.5020 C.3   1 SAM  -0.1600 
 10 HB1     22.4273    -6.5763   -15.5862 H     1 SAM   0.0800 
 11 HB2     22.0824    -7.6604   -14.2173 H     1 SAM   0.0800 
 12 CG      23.9280    -6.5940   -14.0650 C.3   1 SAM  -0.1525 
 13 HG1     24.0029    -6.8423   -13.0063 H     1 SAM   0.0800 
 14 HG2     24.2928    -5.5797   -14.2270 H     1 SAM   0.0800 
 15 SD      24.9380    -7.7560   -15.0270 S.3   1 SAM   0.9775 
 16 CE      24.2540    -9.2140   -14.3040 C.3   1 SAM  -0.2325 
 17 HE1     23.2842    -9.4229   -14.7556 H     1 SAM   0.0800 
 18 HE2     24.1306    -9.0642   -13.2314 H     1 SAM   0.0800 
 19 HE3     24.9248   -10.0552   -14.4785 H     1 SAM   0.0800 
 20 C5'     26.5030    -7.6960   -14.0780 C.3   1 SAM  -0.1525 
 21 H5'1    27.1387    -8.5183   -14.4064 H     1 SAM   0.0800 
 22 H5'2    26.2710    -7.8164   -13.0198 H     1 SAM   0.0800 
 23 C4'     27.2710    -6.3850   -14.2610 C.3   1 SAM   0.2000 
 24 H4'     26.4758    -5.6410   -14.2139 H     1 SAM   0.0800 
 25 O4'     28.2640    -6.1880   -13.2530 O.3   1 SAM  -0.5600 
 26 C3'     28.0260    -6.2700   -15.5830 C.3   1 SAM   0.2000 
 27 H3'     27.9325    -7.1492   -16.2205 H     1 SAM   0.0800 
 28 O3'     27.4880    -5.1700   -16.3070 O.3   1 SAM  -0.6800 
 29 H3'     27.9992    -5.0758   -17.1141 H     1 SAM   0.4000 
 30 C2'     29.4870    -6.0710   -15.2120 C.3   1 SAM   0.2000 
 31 H2'     30.0384    -7.0078   -15.2916 H     1 SAM   0.0800 
 32 O2'     30.2340    -5.2230   -16.0570 O.3   1 SAM  -0.6800 
 33 H2'     31.1271    -5.1788   -15.7078 H     1 SAM   0.4000 
 34 C1'     29.3710    -5.4760   -13.8260 C.3   1 SAM   0.5691 
 35 H1'     29.3047    -4.3947   -13.9461 H     1 SAM   0.0800 
 36 OXT     19.4820    -6.7280   -13.7070 O.co2 1 SAM  -0.9000 
 37 N1      32.1320    -3.3020   -10.1050 N.2   1 SAM  -0.6610 
 38 C2      31.1820    -2.7020   -10.9030 C.2   1 SAM   0.6010 
 39 H2      30.9220    -1.6631   -10.7632 H     1 SAM   0.0600 
 40 N3      30.5740    -3.4490   -11.8770 N.2   1 SAM  -0.6610 
 41 C4      30.9010    -4.7630   -12.0100 C.2   1 SAM   0.5000 
 42 C5      31.8590    -5.3580   -11.2250 C.2   1 SAM   0.4500 
 43 C6      32.5020    -4.6230   -10.2500 C.2   1 SAM   0.6110 
 44 N6      33.4470    -5.1780    -9.4700 N.2   1 SAM  -0.2000 
 45 H62     33.9066    -4.6239    -8.7616 H     1 SAM   0.4000 
 46 H61     33.6970    -6.1489    -9.5927 H     1 SAM   0.4000 
 47 N7      31.9730    -6.6480   -11.6230 N.2   1 SAM  -0.6960 
 48 C8      31.1080    -6.8810   -12.6360 C.3   1 SAM   0.4551 
 49 H81     30.3799    -7.6362   -12.3398 H     1 SAM   0.0800 
 50 H82     31.6487    -7.2239   -13.5181 H     1 SAM   0.0800 
 51 N9      30.4770    -5.7020   -12.9030 N.pl3 1 SAM  -0.7882 
@<TRIPOS>BOND
  1   1   2  1   
  2   1   3  1   
  3   1   4  1   
  4   1   5  1   
  5   5   6  1   
  6   5   7  1   
  7   5   9  1   
  8   7   8  ar  
  9   7  36  ar  
 10   9  10  1   
 11   9  11  1   
 12   9  12  1   
 13  12  13  1   
 14  12  14  1   
 15  12  15  1   
 16  15  16  1   
 17  15  20  1   
 18  16  17  1   
 19  16  18  1   
 20  16  19  1   
 21  20  21  1   
 22  20  22  1   
 23  20  23  1   
 24  23  24  1   
 25  23  25  1   
 26  23  26  1   
 27  25  34  1   
 28  26  27  1   
 29  26  28  1   
 30  26  30  1   
 31  28  29  1   
 32  30  31  1   
 33  30  32  1   
 34  30  34  1   
 35  32  33  1   
 36  34  35  1   
 37  34  51  1   
 38  37  38  2   
 39  37  43  1   
 40  38  39  1   
 41  38  40  1   
 42  40  41  2   
 43  41  42  1   
 44  41  51  1   
 45  42  43  1   
 46  42  47  2   
 47  43  44  2   
 48  44  45  1   
 49  44  46  1   
 50  47  48  1   
 51  48  49  1   
 52  48  50  1   
 53  48  51  1   
@<TRIPOS>SUBSTRUCTURE
  1 SAM  25 GROUP 4 A **** 0

# MOE 2022.02 (io_trps.svl 2020.11)
