# created with PyMOL 2.4.0
@<TRIPOS>MOLECULE
temp
50 52 1                 
SMALL
USER_CHARGES
@<TRIPOS>ATOM
1	   N	12.959	11.029	3.696	N.4	1	SAM1	0.000	
2	  CA	12.749	11.240	2.262	C.3	1	SAM1	0.000	
3	   C	14.030	11.310	1.453	C.2	1	SAM1	0.000	
4	   O	15.106	11.434	2.035	O.co2	1	SAM1	0.000	
5	  CB	11.985	12.531	2.041	C.3	1	SAM1	0.000	
6	  CG	10.488	12.348	1.974	C.3	1	SAM1	0.000	
7	  SD	9.754	13.368	0.665	S.3	1	SAM1	0.000	
8	  CE	9.543	14.872	1.641	C.3	1	SAM1	0.000	
9	 C5'	8.103	12.636	0.736	C.3	1	SAM1	0.000	
10	 C4'	8.039	11.240	0.112	C.3	1	SAM1	0.000	
11	 O4'	6.715	10.762	0.241	O.3	1	SAM1	0.000	
12	 C3'	8.318	11.232	-1.394	C.3	1	SAM1	0.000	
13	 O3'	9.402	10.369	-1.664	O.3	1	SAM1	0.000	
14	 C2'	7.024	10.752	-2.052	C.3	1	SAM1	0.000	
15	 O2'	7.145	9.902	-3.181	O.3	1	SAM1	0.000	
16	 C1'	6.380	9.993	-0.912	C.3	1	SAM1	0.000	
17	 OXT	13.997	11.271	0.212	O.co2	1	SAM1	0.000	
18	  N1	2.487	6.755	0.067	N.2	1	SAM1	0.000	
19	  C2	3.841	6.531	0.126	C.2	1	SAM1	0.000	
20	  N3	4.728	7.527	-0.181	N.2	1	SAM1	0.000	
21	  C4	4.259	8.739	-0.564	C.2	1	SAM1	0.000	
22	  C5	2.897	9.004	-0.632	C.2	1	SAM1	0.000	
23	  C6	1.995	7.985	-0.314	C.2	1	SAM1	0.000	
24	  N6	0.669	8.176	-0.352	N.pl3	1	SAM1	0.000	
25	  N7	2.742	10.301	-1.029	N.2	1	SAM1	0.000	
26	  C8	3.971	10.828	-1.204	C.2	1	SAM1	0.000	
27	  N9	4.917	9.868	-0.925	N.2	1	SAM1	0.000	
28	  HA	12.190	10.370	1.916	 H	1	SAM1	0.000	
29	 HB1	12.320	12.972	1.102	 H	1	SAM1	0.000	
30	 HB2	12.212	13.210	2.863	 H	1	SAM1	0.000	
31	 HG1	10.053	12.633	2.932	 H	1	SAM1	0.000	
32	 HG2	10.268	11.300	1.772	 H	1	SAM1	0.000	
33	 HE1	10.486	15.417	1.677	 H	1	SAM1	0.000	
34	 HE2	9.237	14.608	2.653	 H	1	SAM1	0.000	
35	 HE3	8.779	15.499	1.182	 H	1	SAM1	0.000	
36	  H1	13.476	11.808	4.079	 H	1	SAM1	0.000	
37	  H2	13.481	10.176	3.838	 H	1	SAM1	0.000	
38	  H2	4.209	5.559	0.418	 H	1	SAM1	0.000	
39	  H3	12.065	10.958	4.160	 H	1	SAM1	0.000	
40	  H8	4.180	11.841	-1.514	 H	1	SAM1	0.000	
41	 H1'	6.741	8.966	-0.962	 H	1	SAM1	0.000	
42	 H2'	6.479	11.599	-2.469	 H	1	SAM1	0.000	
43	 H2'	7.630	10.383	-3.856	 H	1	SAM1	0.000	
44	 H3'	8.596	12.213	-1.780	 H	1	SAM1	0.000	
45	 H3'	9.531	10.353	-2.615	 H	1	SAM1	0.000	
46	 H4'	8.791	10.639	0.623	 H	1	SAM1	0.000	
47	 H61	0.296	9.077	-0.616	 H	1	SAM1	0.000	
48	 H62	0.043	7.419	-0.116	 H	1	SAM1	0.000	
49	H5'1	7.411	13.287	0.201	 H	1	SAM1	0.000	
50	H5'2	7.800	12.564	1.781	 H	1	SAM1	0.000	
@<TRIPOS>BOND
1 1 2 1
2 1 36 1
3 1 37 1
4 1 39 1
5 2 3 1
6 2 5 1
7 2 28 1
8 3 4 ar
9 3 17 ar
10 5 6 1
11 5 29 1
12 5 30 1
13 6 7 1
14 6 31 1
15 6 32 1
16 7 8 1
17 7 9 1
18 8 33 1
19 8 34 1
20 8 35 1
21 9 10 1
22 9 49 1
23 9 50 1
24 10 11 1
25 10 12 1
26 10 46 1
27 11 16 1
28 12 13 1
29 12 14 1
30 12 44 1
31 13 45 1
32 14 15 1
33 14 16 1
34 14 42 1
35 15 43 1
36 16 27 1
37 16 41 1
38 18 19 ar
39 18 23 ar
40 19 20 ar
41 19 38 1
42 20 21 ar
43 21 22 ar
44 21 27 ar
45 22 23 ar
46 22 25 ar
47 23 24 1
48 24 47 1
49 24 48 1
50 25 26 ar
51 26 27 ar
52 26 40 1
@<TRIPOS>SUBSTRUCTURE
1	SAM1	1	GROUP	1 A	SAM
