# created with PyMOL 2.5.0
@<TRIPOS>MOLECULE
6H2U
27 29 1                 
SMALL
USER_CHARGES
@<TRIPOS>ATOM
1	   N	12.959	11.029	3.696	N.3	1	SAM301	0.000	
2	  CA	12.749	11.240	2.262	C.3	1	SAM301	0.000	
3	   C	14.030	11.310	1.453	C.2	1	SAM301	0.000	
4	   O	15.106	11.434	2.035	O.co2	1	SAM301	0.000	
5	  CB	11.985	12.531	2.041	C.3	1	SAM301	0.000	
6	  CG	10.488	12.348	1.974	C.3	1	SAM301	0.000	
7	  SD	9.754	13.368	0.665	S.3	1	SAM301	0.000	
8	  CE	9.543	14.872	1.641	C.3	1	SAM301	0.000	
9	 C5'	8.103	12.636	0.736	C.3	1	SAM301	0.000	
10	 C4'	8.039	11.240	0.112	C.3	1	SAM301	0.000	
11	 O4'	6.715	10.762	0.241	O.3	1	SAM301	0.000	
12	 C3'	8.318	11.232	-1.394	C.3	1	SAM301	0.000	
13	 O3'	9.402	10.369	-1.664	O.3	1	SAM301	0.000	
14	 C2'	7.024	10.752	-2.052	C.3	1	SAM301	0.000	
15	 O2'	7.145	9.902	-3.181	O.3	1	SAM301	0.000	
16	 C1'	6.380	9.993	-0.912	C.3	1	SAM301	0.000	
17	 OXT	13.997	11.271	0.212	O.co2	1	SAM301	0.000	
18	  N1	2.487	6.755	0.067	N.2	1	SAM301	0.000	
19	  C2	3.841	6.531	0.126	C.2	1	SAM301	0.000	
20	  N3	4.728	7.527	-0.181	N.2	1	SAM301	0.000	
21	  C4	4.259	8.739	-0.564	C.2	1	SAM301	0.000	
22	  C5	2.897	9.004	-0.632	C.2	1	SAM301	0.000	
23	  C6	1.995	7.985	-0.314	C.2	1	SAM301	0.000	
24	  N6	0.669	8.176	-0.352	N.pl3	1	SAM301	0.000	
25	  N7	2.742	10.301	-1.029	N.2	1	SAM301	0.000	
26	  C8	3.971	10.828	-1.204	C.2	1	SAM301	0.000	
27	  N9	4.917	9.868	-0.925	N.2	1	SAM301	0.000	
@<TRIPOS>BOND
1 1 2 1
2 2 3 1
3 2 5 1
4 3 4 ar
5 3 17 ar
6 5 6 1
7 6 7 1
8 7 8 1
9 7 9 1
10 9 10 1
11 10 11 1
12 10 12 1
13 11 16 1
14 12 13 1
15 12 14 1
16 14 15 1
17 14 16 1
18 16 27 1
19 18 19 ar
20 18 23 ar
21 19 20 ar
22 20 21 ar
23 21 22 ar
24 21 27 ar
25 22 23 ar
26 22 25 ar
27 23 24 1
28 25 26 ar
29 26 27 ar
@<TRIPOS>SUBSTRUCTURE
1	SAM301	1	GROUP	1 A	SAM
