@<TRIPOS>MOLECULE
6H2U.A
51 53 1 0 0 
SMALL
USER_CHARGES


@<TRIPOS>ATOM
  1 N       12.9590    11.0290     3.6960 N.4   1 SAM  -0.8530 
  2 H1      13.4759    11.8077     4.0787 H     1 SAM   0.4500 
  3 H2      13.4810    10.1761     3.8379 H     1 SAM   0.4500 
  4 H3      12.0649    10.9577     4.1603 H     1 SAM   0.4500 
  5 CA      12.7490    11.2400     2.2620 C.3   1 SAM   0.3170 
  6 HA      12.1903    10.3705     1.9158 H     1 SAM   0.0800 
  7 C       14.0300    11.3100     1.4530 C.2   1 SAM   0.9060 
  8 O       15.1060    11.4340     2.0350 O.co2 1 SAM  -0.9000 
  9 CB      11.9850    12.5310     2.0410 C.3   1 SAM  -0.1600 
 10 HB1     12.3198    12.9723     1.1023 H     1 SAM   0.0800 
 11 HB2     12.2120    13.2099     2.8630 H     1 SAM   0.0800 
 12 CG      10.4880    12.3480     1.9740 C.3   1 SAM  -0.1525 
 13 HG1     10.0527    12.6331     2.9318 H     1 SAM   0.0800 
 14 HG2     10.2676    11.2997     1.7723 H     1 SAM   0.0800 
 15 SD       9.7540    13.3680     0.6650 S.3   1 SAM   0.9775 
 16 CE       9.5430    14.8720     1.6410 C.3   1 SAM  -0.2325 
 17 HE1     10.4863    15.4170     1.6771 H     1 SAM   0.0800 
 18 HE2      9.2367    14.6083     2.6533 H     1 SAM   0.0800 
 19 HE3      8.7786    15.4989     1.1818 H     1 SAM   0.0800 
 20 C5'      8.1030    12.6360     0.7360 C.3   1 SAM  -0.1525 
 21 H5'1     7.4113    13.2872     0.2015 H     1 SAM   0.0800 
 22 H5'2     7.8001    12.5635     1.7806 H     1 SAM   0.0800 
 23 C4'      8.0390    11.2400     0.1120 C.3   1 SAM   0.2000 
 24 H4'      8.7914    10.6395     0.6233 H     1 SAM   0.0800 
 25 O4'      6.7150    10.7620     0.2410 O.3   1 SAM  -0.5600 
 26 C3'      8.3180    11.2320    -1.3940 C.3   1 SAM   0.2000 
 27 H3'      8.5958    12.2129    -1.7796 H     1 SAM   0.0800 
 28 O3'      9.4020    10.3690    -1.6640 O.3   1 SAM  -0.6800 
 29 H3'      9.5305    10.3532    -2.6152 H     1 SAM   0.4000 
 30 C2'      7.0240    10.7520    -2.0520 C.3   1 SAM   0.2000 
 31 H2'      6.4793    11.5989    -2.4692 H     1 SAM   0.0800 
 32 O2'      7.1450     9.9020    -3.1810 O.3   1 SAM  -0.6800 
 33 H2'      7.6206     9.1159    -2.9028 H     1 SAM   0.4000 
 34 C1'      6.3800     9.9930    -0.9120 C.3   1 SAM   0.5691 
 35 H1'      6.7410     8.9657    -0.9620 H     1 SAM   0.0800 
 36 OXT     13.9970    11.2710     0.2120 O.co2 1 SAM  -0.9000 
 37 N1       2.4870     6.7550     0.0670 N.2   1 SAM  -0.6610 
 38 C2       3.8410     6.5310     0.1260 C.2   1 SAM   0.6010 
 39 H2       4.2095     5.5586     0.4177 H     1 SAM   0.0600 
 40 N3       4.7280     7.5270    -0.1810 N.2   1 SAM  -0.6610 
 41 C4       4.2590     8.7390    -0.5640 C.2   1 SAM   0.5000 
 42 C5       2.8970     9.0040    -0.6320 C.2   1 SAM   0.4500 
 43 C6       1.9950     7.9850    -0.3140 C.2   1 SAM   0.6110 
 44 N6       0.6690     8.1760    -0.3520 N.2   1 SAM  -0.2000 
 45 H62      0.0428     7.4193    -0.1165 H     1 SAM   0.4000 
 46 H61      0.2959     9.0766    -0.6161 H     1 SAM   0.4000 
 47 N7       2.7420    10.3010    -1.0290 N.2   1 SAM  -0.6960 
 48 C8       3.9710    10.8280    -1.2040 C.3   1 SAM   0.4551 
 49 H81      4.1032    11.6765    -0.5327 H     1 SAM   0.0800 
 50 H82      4.0819    11.1605    -2.2361 H     1 SAM   0.0800 
 51 N9       4.9170     9.8680    -0.9250 N.pl3 1 SAM  -0.7882 
@<TRIPOS>BOND
  1   1   2  1   
  2   1   3  1   
  3   1   4  1   
  4   1   5  1   
  5   5   6  1   
  6   5   7  1   
  7   5   9  1   
  8   7   8  ar  
  9   7  36  ar  
 10   9  10  1   
 11   9  11  1   
 12   9  12  1   
 13  12  13  1   
 14  12  14  1   
 15  12  15  1   
 16  15  16  1   
 17  15  20  1   
 18  16  17  1   
 19  16  18  1   
 20  16  19  1   
 21  20  21  1   
 22  20  22  1   
 23  20  23  1   
 24  23  24  1   
 25  23  25  1   
 26  23  26  1   
 27  25  34  1   
 28  26  27  1   
 29  26  28  1   
 30  26  30  1   
 31  28  29  1   
 32  30  31  1   
 33  30  32  1   
 34  30  34  1   
 35  32  33  1   
 36  34  35  1   
 37  34  51  1   
 38  37  38  2   
 39  37  43  1   
 40  38  39  1   
 41  38  40  1   
 42  40  41  2   
 43  41  42  1   
 44  41  51  1   
 45  42  43  1   
 46  42  47  2   
 47  43  44  2   
 48  44  45  1   
 49  44  46  1   
 50  47  48  1   
 51  48  49  1   
 52  48  50  1   
 53  48  51  1   
@<TRIPOS>SUBSTRUCTURE
  1 SAM  25 GROUP 4 A **** 0

# MOE 2022.02 (io_trps.svl 2020.11)
