# created with PyMOL 2.5.0
@<TRIPOS>MOLECULE
4CTJ
12 13 1                 
SMALL
USER_CHARGES
@<TRIPOS>ATOM
1	  C1	50.883	49.246	13.472	C.2	1	3A91264	0.000	
2	  O1	49.756	49.570	13.868	O.co2	1	3A91264	0.000	
3	  C2	52.040	49.197	14.319	C.2	1	3A91264	0.000	
4	  O2	51.018	48.888	12.181	O.co2	1	3A91264	0.000	
5	  C3	53.167	48.455	13.961	C.2	1	3A91264	0.000	
6	  O3	55.051	49.093	17.068	O.2	1	3A91264	0.000	
7	  C4	54.253	48.366	14.873	C.2	1	3A91264	0.000	
8	  C5	54.116	49.071	16.071	C.2	1	3A91264	0.000	
9	  C6	54.609	49.959	18.139	C.2	1	3A91264	0.000	
10	  C7	53.201	50.524	17.720	C.2	1	3A91264	0.000	
11	  C8	52.984	49.827	16.402	C.2	1	3A91264	0.000	
12	  C9	51.928	49.885	15.540	C.2	1	3A91264	0.000	
@<TRIPOS>BOND
1 1 2 ar
2 1 3 1
3 1 4 ar
4 3 5 ar
5 3 12 ar
6 5 7 ar
7 6 8 ar
8 6 9 ar
9 7 8 ar
10 8 11 ar
11 9 10 ar
12 10 11 ar
13 11 12 ar
@<TRIPOS>SUBSTRUCTURE
1	3A91264	1	GROUP	1 A	3A9
