# created with PyMOL 2.5.2
@<TRIPOS>MOLECULE
4CTJ.A
19 20 1                 
SMALL
USER_CHARGES
@<TRIPOS>ATOM
1	  C1	50.883	49.246	13.472	C.2	1	Q3A	0.979	
2	  O1	49.756	49.570	13.868	O.co2	1	Q3A	-0.900	
3	  C2	52.040	49.197	14.319	C.2	1	Q3A	-0.179	
4	  O2	51.018	48.888	12.181	O.co2	1	Q3A	-0.900	
5	  C3	53.167	48.455	13.961	C.2	1	Q3A	-0.150	
6	  O3	55.051	49.093	17.068	O.3	1	Q3A	-0.280	
7	  C4	54.253	48.366	14.873	C.2	1	Q3A	-0.150	
8	  C5	54.116	49.071	16.071	C.2	1	Q3A	0.140	
9	  C6	54.609	49.959	18.139	C.3	1	Q3A	-0.010	
10	  C7	53.201	50.524	17.720	C.3	1	Q3A	-0.150	
11	  C8	52.984	49.827	16.402	C.2	1	Q3A	-0.000	
12	  C9	51.928	49.885	15.540	C.2	1	Q3A	-0.150	
13	 H01	53.156	51.612	17.663	 H	1	Q3A	0.000	
14	 H02	52.432	50.258	18.445	 H	1	Q3A	0.000	
15	 H03	55.320	50.768	18.304	 H	1	Q3A	0.000	
16	 H04	54.526	49.395	19.068	 H	1	Q3A	0.000	
17	  H3	53.213	47.956	13.004	 H	1	Q3A	0.150	
18	  H4	55.136	47.785	14.652	 H	1	Q3A	0.150	
19	  H9	51.036	50.441	15.787	 H	1	Q3A	0.150	
@<TRIPOS>BOND
1 1 2 ar
2 1 3 1
3 1 4 ar
4 3 5 ar
5 3 12 ar
6 5 7 ar
7 5 17 1
8 6 8 1
9 6 9 1
10 7 8 ar
11 7 18 1
12 8 11 ar
13 9 15 1
14 9 16 1
15 9 10 1
16 10 11 1
17 10 13 1
18 10 14 1
19 11 12 ar
20 12 19 1
@<TRIPOS>SUBSTRUCTURE
1	Q3A	1	GROUP	1 A	Q
