@<TRIPOS>MOLECULE
4CTJ.A
17 18 1 0 0 
SMALL
USER_CHARGES


@<TRIPOS>ATOM
  1 C1      50.8830    49.2460    13.4720 C.2   1 Q3A   0.9790 
  2 O1      49.7560    49.5700    13.8680 O.co2 1 Q3A  -0.9000 
  3 C2      52.0400    49.1970    14.3190 C.ar  1 Q3A  -0.1790 
  4 O2      51.0180    48.8880    12.1810 O.co2 1 Q3A  -0.9000 
  5 C3      53.1670    48.4550    13.9610 C.ar  1 Q3A  -0.1500 
  6 H3      53.2128    47.9557    13.0044 H     1 Q3A   0.1500 
  7 O3      55.0510    49.0930    17.0680 O.3   1 Q3A  -0.2800 
  8 C4      54.2530    48.3660    14.8730 C.ar  1 Q3A  -0.1500 
  9 H4      55.1361    47.7850    14.6519 H     1 Q3A   0.1500 
 10 C5      54.1160    49.0710    16.0710 C.ar  1 Q3A   0.1400 
 11 C6      54.6090    49.9590    18.1390 C.2   1 Q3A  -0.0100 
 12 H6      55.1433    50.1764    19.0521 H     1 Q3A   0.1500 
 13 C7      53.2010    50.5240    17.7200 C.2   1 Q3A  -0.1500 
 14 H7      52.5619    51.2236    18.2382 H     1 Q3A   0.1500 
 15 C8      52.9840    49.8270    16.4020 C.ar  1 Q3A  -0.0000 
 16 C9      51.9280    49.8850    15.5400 C.ar  1 Q3A  -0.1500 
 17 H9      51.0357    50.4409    15.7874 H     1 Q3A   0.1500 
@<TRIPOS>BOND
  1   1   2  ar  
  2   1   3  1   
  3   1   4  ar  
  4   3   5  ar  
  5   3  16  ar  
  6   5   6  1   
  7   5   8  ar  
  8   7  10  1   
  9   7  11  1   
 10   8   9  1   
 11   8  10  ar  
 12  10  15  ar  
 13  11  12  1   
 14  11  13  2   
 15  13  14  1   
 16  13  15  1   
 17  15  16  ar  
 18  16  17  1   
@<TRIPOS>SUBSTRUCTURE
  1 Q3A  16 GROUP 4 A **** 0

# MOE 2022.02 (io_trps.svl 2020.11)
