@<TRIPOS>MOLECULE
4CTJ.A
51 53 1 0 0 
SMALL
USER_CHARGES


@<TRIPOS>ATOM
  1 N       38.2080    43.7040    -7.0480 N.4   1 SAM  -0.8530 
  2 H1      38.8579    44.0613    -6.3624 H     1 SAM   0.4500 
  3 H2      38.7179    43.3711    -7.8538 H     1 SAM   0.4500 
  4 H3      37.6793    42.9430    -6.6462 H     1 SAM   0.4500 
  5 CA      37.2870    44.7790    -7.4590 C.3   1 SAM   0.3170 
  6 HA      36.5861    44.3925    -8.1989 H     1 SAM   0.0800 
  7 C       38.0640    45.9140    -8.1350 C.2   1 SAM   0.9060 
  8 O       39.3040    45.7930    -8.2050 O.co2 1 SAM  -0.9000 
  9 CB      36.4430    45.2520    -6.2720 C.3   1 SAM  -0.1600 
 10 HB1     35.8616    46.1283    -6.5586 H     1 SAM   0.0800 
 11 HB2     37.0932    45.5054    -5.4347 H     1 SAM   0.0800 
 12 CG      35.4830    44.0920    -5.8630 C.3   1 SAM  -0.1525 
 13 HG1     36.0745    43.2645    -5.4712 H     1 SAM   0.0800 
 14 HG2     34.9331    43.7604    -6.7438 H     1 SAM   0.0800 
 15 SD      34.3230    44.6120    -4.6200 S.3   1 SAM   0.9775 
 16 CE      35.2400    44.4600    -3.1580 C.3   1 SAM  -0.2325 
 17 HE1     35.9148    45.3107    -3.0623 H     1 SAM   0.0800 
 18 HE2     35.8200    43.5376    -3.1871 H     1 SAM   0.0800 
 19 HE3     34.5621    44.4361    -2.3048 H     1 SAM   0.0800 
 20 C5'     33.3420    43.1070    -4.4860 C.3   1 SAM  -0.1525 
 21 H5'1    32.8110    43.0952    -3.5341 H     1 SAM   0.0800 
 22 H5'2    33.9924    42.2347    -4.5501 H     1 SAM   0.0800 
 23 C4'     32.3430    43.0920    -5.6350 C.3   1 SAM   0.2000 
 24 H4'     32.9082    43.2402    -6.5551 H     1 SAM   0.0800 
 25 O4'     31.6330    41.8380    -5.5050 O.3   1 SAM  -0.5600 
 26 C3'     31.2750    44.1930    -5.6050 C.3   1 SAM   0.2000 
 27 H3'     31.4007    44.9128    -4.7962 H     1 SAM   0.0800 
 28 O3'     31.3410    44.9810    -6.7810 O.3   1 SAM  -0.6800 
 29 H3'     30.6295    45.6241    -6.7398 H     1 SAM   0.4000 
 30 C2'     29.9580    43.4230    -5.4460 C.3   1 SAM   0.2000 
 31 H2'     29.5967    43.4257    -4.4176 H     1 SAM   0.0800 
 32 O2'     28.8830    43.9790    -6.1830 O.3   1 SAM  -0.6800 
 33 H2'     29.1454    44.0024    -7.1061 H     1 SAM   0.4000 
 34 C1'     30.3350    42.0580    -6.0030 C.3   1 SAM   0.5691 
 35 H1'     30.2402    42.0601    -7.0889 H     1 SAM   0.0800 
 36 OXT     37.4030    46.8650    -8.5970 O.co2 1 SAM  -0.9000 
 37 N1      27.9900    37.6120    -7.1260 N.2   1 SAM  -0.6610 
 38 C2      28.7480    38.4290    -7.8660 C.2   1 SAM   0.6010 
 39 H2      28.9332    38.1049    -8.8794 H     1 SAM   0.0600 
 40 N3      29.3090    39.5970    -7.5180 N.2   1 SAM  -0.6610 
 41 C4      29.0500    39.8850    -6.2350 C.2   1 SAM   0.5000 
 42 C5      28.3040    39.1260    -5.3400 C.2   1 SAM   0.4500 
 43 C6      27.7350    37.9310    -5.8360 C.2   1 SAM   0.6110 
 44 N6      26.9110    37.1530    -5.1200 N.2   1 SAM  -0.2000 
 45 H62     26.5335    36.3089    -5.5262 H     1 SAM   0.4000 
 46 H61     26.6677    37.4109    -4.1743 H     1 SAM   0.4000 
 47 N7      28.2990    39.7130    -4.0840 N.2   1 SAM  -0.6960 
 48 C8      29.0060    40.8050    -4.2490 C.3   1 SAM   0.4551 
 49 H81     29.8545    40.7696    -3.5657 H     1 SAM   0.0800 
 50 H82     28.3767    41.6603    -4.0029 H     1 SAM   0.0800 
 51 N9      29.4860    40.9760    -5.5230 N.pl3 1 SAM  -0.7882 
@<TRIPOS>BOND
  1   1   2  1   
  2   1   3  1   
  3   1   4  1   
  4   1   5  1   
  5   5   6  1   
  6   5   7  1   
  7   5   9  1   
  8   7   8  ar  
  9   7  36  ar  
 10   9  10  1   
 11   9  11  1   
 12   9  12  1   
 13  12  13  1   
 14  12  14  1   
 15  12  15  1   
 16  15  16  1   
 17  15  20  1   
 18  16  17  1   
 19  16  18  1   
 20  16  19  1   
 21  20  21  1   
 22  20  22  1   
 23  20  23  1   
 24  23  24  1   
 25  23  25  1   
 26  23  26  1   
 27  25  34  1   
 28  26  27  1   
 29  26  28  1   
 30  26  30  1   
 31  28  29  1   
 32  30  31  1   
 33  30  32  1   
 34  30  34  1   
 35  32  33  1   
 36  34  35  1   
 37  34  51  1   
 38  37  38  2   
 39  37  43  1   
 40  38  39  1   
 41  38  40  1   
 42  40  41  2   
 43  41  42  1   
 44  41  51  1   
 45  42  43  1   
 46  42  47  2   
 47  43  44  2   
 48  44  45  1   
 49  44  46  1   
 50  47  48  1   
 51  48  49  1   
 52  48  50  1   
 53  48  51  1   
@<TRIPOS>SUBSTRUCTURE
  1 SAM  25 GROUP 4 A **** 0

# MOE 2022.02 (io_trps.svl 2020.11)
