# created with PyMOL 2.5.0
@<TRIPOS>MOLECULE
4CTJ
27 29 1                 
SMALL
USER_CHARGES
@<TRIPOS>ATOM
1	   N	38.208	43.704	-7.048	N.3	1	SAM1263	0.000	
2	  CA	37.287	44.779	-7.459	C.3	1	SAM1263	0.000	
3	   C	38.064	45.914	-8.135	C.2	1	SAM1263	0.000	
4	   O	39.304	45.793	-8.205	O.co2	1	SAM1263	0.000	
5	  CB	36.443	45.252	-6.272	C.3	1	SAM1263	0.000	
6	  CG	35.483	44.092	-5.863	C.3	1	SAM1263	0.000	
7	  SD	34.323	44.612	-4.620	S.3	1	SAM1263	0.000	
8	  CE	35.240	44.460	-3.158	C.3	1	SAM1263	0.000	
9	 C5'	33.342	43.107	-4.486	C.3	1	SAM1263	0.000	
10	 C4'	32.343	43.092	-5.635	C.3	1	SAM1263	0.000	
11	 O4'	31.633	41.838	-5.505	O.3	1	SAM1263	0.000	
12	 C3'	31.275	44.193	-5.605	C.3	1	SAM1263	0.000	
13	 O3'	31.341	44.981	-6.781	O.3	1	SAM1263	0.000	
14	 C2'	29.958	43.423	-5.446	C.3	1	SAM1263	0.000	
15	 O2'	28.883	43.979	-6.183	O.3	1	SAM1263	0.000	
16	 C1'	30.335	42.058	-6.003	C.3	1	SAM1263	0.000	
17	 OXT	37.403	46.865	-8.597	O.co2	1	SAM1263	0.000	
18	  N1	27.990	37.612	-7.126	N.2	1	SAM1263	0.000	
19	  C2	28.748	38.429	-7.866	C.2	1	SAM1263	0.000	
20	  N3	29.309	39.597	-7.518	N.2	1	SAM1263	0.000	
21	  C4	29.050	39.885	-6.235	C.2	1	SAM1263	0.000	
22	  C5	28.304	39.126	-5.340	C.2	1	SAM1263	0.000	
23	  C6	27.735	37.931	-5.836	C.2	1	SAM1263	0.000	
24	  N6	26.911	37.153	-5.120	N.pl3	1	SAM1263	0.000	
25	  N7	28.299	39.713	-4.084	N.2	1	SAM1263	0.000	
26	  C8	29.006	40.805	-4.249	C.2	1	SAM1263	0.000	
27	  N9	29.486	40.976	-5.523	N.2	1	SAM1263	0.000	
@<TRIPOS>BOND
1 1 2 1
2 2 3 1
3 2 5 1
4 3 4 ar
5 3 17 ar
6 5 6 1
7 6 7 1
8 7 8 1
9 7 9 1
10 9 10 1
11 10 11 1
12 10 12 1
13 11 16 1
14 12 13 1
15 12 14 1
16 14 15 1
17 14 16 1
18 16 27 1
19 18 19 ar
20 18 23 ar
21 19 20 ar
22 20 21 ar
23 21 22 ar
24 21 27 ar
25 22 23 ar
26 22 25 ar
27 23 24 1
28 25 26 ar
29 26 27 ar
@<TRIPOS>SUBSTRUCTURE
1	SAM1263	1	GROUP	1 A	SAM
