# created with PyMOL 2.4.0
@<TRIPOS>MOLECULE
temp
50 52 1                 
SMALL
USER_CHARGES
@<TRIPOS>ATOM
1	   N	38.208	43.704	-7.048	N.4	1	SAM1	0.000	
2	  CA	37.287	44.779	-7.459	C.3	1	SAM1	0.000	
3	   C	38.064	45.914	-8.135	C.2	1	SAM1	0.000	
4	   O	39.304	45.793	-8.205	O.co2	1	SAM1	0.000	
5	  CB	36.443	45.252	-6.272	C.3	1	SAM1	0.000	
6	  CG	35.483	44.092	-5.863	C.3	1	SAM1	0.000	
7	  SD	34.323	44.612	-4.620	S.3	1	SAM1	0.000	
8	  CE	35.240	44.460	-3.158	C.3	1	SAM1	0.000	
9	 C5'	33.342	43.107	-4.486	C.3	1	SAM1	0.000	
10	 C4'	32.343	43.092	-5.635	C.3	1	SAM1	0.000	
11	 O4'	31.633	41.838	-5.505	O.3	1	SAM1	0.000	
12	 C3'	31.275	44.193	-5.605	C.3	1	SAM1	0.000	
13	 O3'	31.341	44.981	-6.781	O.3	1	SAM1	0.000	
14	 C2'	29.958	43.423	-5.446	C.3	1	SAM1	0.000	
15	 O2'	28.883	43.979	-6.183	O.3	1	SAM1	0.000	
16	 C1'	30.335	42.058	-6.003	C.3	1	SAM1	0.000	
17	 OXT	37.403	46.865	-8.597	O.co2	1	SAM1	0.000	
18	  N1	27.990	37.612	-7.126	N.2	1	SAM1	0.000	
19	  C2	28.748	38.429	-7.866	C.2	1	SAM1	0.000	
20	  N3	29.309	39.597	-7.518	N.2	1	SAM1	0.000	
21	  C4	29.050	39.885	-6.235	C.2	1	SAM1	0.000	
22	  C5	28.304	39.126	-5.340	C.2	1	SAM1	0.000	
23	  C6	27.735	37.931	-5.836	C.2	1	SAM1	0.000	
24	  N6	26.911	37.153	-5.120	N.pl3	1	SAM1	0.000	
25	  N7	28.299	39.713	-4.084	N.2	1	SAM1	0.000	
26	  C8	29.006	40.805	-4.249	C.2	1	SAM1	0.000	
27	  N9	29.486	40.976	-5.523	N.2	1	SAM1	0.000	
28	  HA	36.586	44.393	-8.199	 H	1	SAM1	0.000	
29	 HB1	35.862	46.128	-6.559	 H	1	SAM1	0.000	
30	 HB2	37.093	45.505	-5.435	 H	1	SAM1	0.000	
31	 HG1	36.075	43.264	-5.471	 H	1	SAM1	0.000	
32	 HG2	34.933	43.760	-6.744	 H	1	SAM1	0.000	
33	 HE1	35.915	45.311	-3.062	 H	1	SAM1	0.000	
34	 HE2	35.820	43.538	-3.187	 H	1	SAM1	0.000	
35	 HE3	34.562	44.436	-2.305	 H	1	SAM1	0.000	
36	  H1	38.858	44.061	-6.362	 H	1	SAM1	0.000	
37	  H2	38.718	43.371	-7.854	 H	1	SAM1	0.000	
38	  H2	28.933	38.105	-8.879	 H	1	SAM1	0.000	
39	  H3	37.679	42.943	-6.646	 H	1	SAM1	0.000	
40	  H8	29.194	41.509	-3.452	 H	1	SAM1	0.000	
41	 H1'	30.240	42.060	-7.089	 H	1	SAM1	0.000	
42	 H2'	29.597	43.426	-4.418	 H	1	SAM1	0.000	
43	 H2'	28.725	44.863	-5.844	 H	1	SAM1	0.000	
44	 H3'	31.401	44.913	-4.796	 H	1	SAM1	0.000	
45	 H3'	30.629	45.624	-6.740	 H	1	SAM1	0.000	
46	 H4'	32.908	43.240	-6.555	 H	1	SAM1	0.000	
47	 H61	26.668	37.411	-4.174	 H	1	SAM1	0.000	
48	 H62	26.534	36.309	-5.526	 H	1	SAM1	0.000	
49	H5'1	32.811	43.095	-3.534	 H	1	SAM1	0.000	
50	H5'2	33.992	42.235	-4.550	 H	1	SAM1	0.000	
@<TRIPOS>BOND
1 1 2 1
2 1 36 1
3 1 37 1
4 1 39 1
5 2 3 1
6 2 5 1
7 2 28 1
8 3 4 ar
9 3 17 ar
10 5 6 1
11 5 29 1
12 5 30 1
13 6 7 1
14 6 31 1
15 6 32 1
16 7 8 1
17 7 9 1
18 8 33 1
19 8 34 1
20 8 35 1
21 9 10 1
22 9 49 1
23 9 50 1
24 10 11 1
25 10 12 1
26 10 46 1
27 11 16 1
28 12 13 1
29 12 14 1
30 12 44 1
31 13 45 1
32 14 15 1
33 14 16 1
34 14 42 1
35 15 43 1
36 16 27 1
37 16 41 1
38 18 19 ar
39 18 23 ar
40 19 20 ar
41 19 38 1
42 20 21 ar
43 21 22 ar
44 21 27 ar
45 22 23 ar
46 22 25 ar
47 23 24 1
48 24 47 1
49 24 48 1
50 25 26 ar
51 26 27 ar
52 26 40 1
@<TRIPOS>SUBSTRUCTURE
1	SAM1	1	GROUP	1 A	SAM
