@<TRIPOS>MOLECULE
3DMH.****
32 34 2 0 0 
SMALL
USER_CHARGES


@<TRIPOS>ATOM
  1 C5'     29.4350    43.6660    28.3120 C.3   1 GMP   0.1200 
  2 H5'1    28.8984    42.7365    28.1220 H     1 GMP   0.0800 
  3 H5'2    30.4968    43.4535    28.4370 H     1 GMP   0.0800 
  4 O5'     28.9450    44.2210    29.5350 O.3   1 GMP  -0.6800 
  5 H5'     29.4393    45.0258    29.7072 H     1 GMP   0.4000 
  6 C4'     29.2850    44.4910    27.1950 C.3   2 GMP   0.2000 
  7 H4'     28.2182    44.4573    27.4162 H     2 GMP   0.0800 
  8 O4'     29.7130    45.8590    27.1990 O.3   2 GMP  -0.5600 
  9 C3'     29.5470    43.9660    25.7930 C.3   2 GMP   0.2000 
 10 H3'     29.9086    42.9382    25.7600 H     2 GMP   0.0800 
 11 O3'     28.3160    44.0530    25.0640 O.3   2 GMP  -0.6800 
 12 H3'     27.6878    43.4605    25.4834 H     2 GMP   0.4000 
 13 C2'     30.5500    44.9490    25.2160 C.3   2 GMP   0.2000 
 14 H2'     31.5873    44.6625    25.3893 H     2 GMP   0.0800 
 15 O2'     30.4300    45.0510    23.7970 O.3   2 GMP  -0.6800 
 16 H2'     29.5250    45.3032    23.5996 H     2 GMP   0.4000 
 17 C1'     30.1460    46.2480    25.8920 C.3   2 GMP   0.5461 
 18 H1'     29.4026    46.7339    25.2601 H     2 GMP   0.0800 
 19 N1      31.1330    51.3310    26.2550 N.2   2 GMP  -0.6610 
 20 C2      29.9580    50.6840    26.0550 C.2   2 GMP   0.7110 
 21 N2      28.7990    51.3710    25.9140 N.pl3 2 GMP  -0.8500 
 22 H21     28.8016    52.3801    25.9572 H     2 GMP   0.4000 
 23 H22     27.9323    50.8741    25.7656 H     2 GMP   0.4000 
 24 N3      29.8750    49.3260    25.9820 N.2   2 GMP  -0.6610 
 25 C4      30.9890    48.5630    26.1130 C.2   2 GMP   0.7790 
 26 C5      32.2970    49.2060    26.3290 C.2   2 GMP   0.4500 
 27 C6      32.3080    50.6910    26.3980 C.2   2 GMP   0.7810 
 28 O6      33.3720    51.3180    26.5830 O.2   2 GMP  -0.5700 
 29 N7      33.2070    48.2090    26.4020 N.2   2 GMP  -0.6610 
 30 C8      32.5360    47.0370    26.2560 C.2   2 GMP   0.5510 
 31 H8      32.9993    46.0619    26.2870 H     2 GMP   0.0600 
 32 N9      31.2220    47.2460    26.0680 N.2   2 GMP  -0.0751 
@<TRIPOS>BOND
  1   1   2  1   
  2   1   3  1   
  3   1   4  1   
  4   1   6  1   INTERRES
  5   4   5  1   
  6   6   7  1   
  7   6   8  1   
  8   6   9  1   
  9   8  17  1   
 10   9  10  1   
 11   9  11  1   
 12   9  13  1   
 13  11  12  1   
 14  13  14  1   
 15  13  15  1   
 16  13  17  1   
 17  15  16  1   
 18  17  18  1   
 19  17  32  1   
 20  19  20  2   
 21  19  27  1   
 22  20  21  1   
 23  20  24  1   
 24  21  22  1   
 25  21  23  1   
 26  24  25  2   
 27  25  26  1   
 28  25  32  1   
 29  26  27  1   
 30  26  29  2   
 31  27  28  2   
 32  29  30  1   
 33  30  31  1   
 34  30  32  2   
@<TRIPOS>SUBSTRUCTURE
  1 GMP   1 GROUP 4 **** **** 1
  2 GMP  32 GROUP 4 **** **** 1

# MOE 2022.02 (io_trps.svl 2020.11)
