# created with PyMOL 2.5.2
@<TRIPOS>MOLECULE
3DMH
20 22 2                 
SMALL
USER_CHARGES
@<TRIPOS>ATOM
1	 C5'	29.435	43.666	28.312	C.3	1	GMP01	0.000	
2	 O5'	28.945	44.221	29.535	O.3	1	GMP01	0.000	
3	 C4'	29.285	44.491	27.195	C.3	2	GMP3852	0.000	
4	 O4'	29.713	45.859	27.199	O.3	2	GMP3852	0.000	
5	 C3'	29.547	43.966	25.793	C.3	2	GMP3852	0.000	
6	 O3'	28.316	44.053	25.064	O.3	2	GMP3852	0.000	
7	 C2'	30.550	44.949	25.216	C.3	2	GMP3852	0.000	
8	 O2'	30.430	45.051	23.797	O.3	2	GMP3852	0.000	
9	 C1'	30.146	46.248	25.892	C.3	2	GMP3852	0.000	
10	  N1	31.133	51.331	26.255	N.2	2	GMP3852	0.000	
11	  C2	29.958	50.684	26.055	C.2	2	GMP3852	0.000	
12	  N2	28.799	51.371	25.914	N.pl3	2	GMP3852	0.000	
13	  N3	29.875	49.326	25.982	N.2	2	GMP3852	0.000	
14	  C4	30.989	48.563	26.113	C.2	2	GMP3852	0.000	
15	  C5	32.297	49.206	26.329	C.2	2	GMP3852	0.000	
16	  C6	32.308	50.691	26.398	C.2	2	GMP3852	0.000	
17	  O6	33.372	51.318	26.583	O.2	2	GMP3852	0.000	
18	  N7	33.207	48.209	26.402	N.2	2	GMP3852	0.000	
19	  C8	32.536	47.037	26.256	C.2	2	GMP3852	0.000	
20	  N9	31.222	47.246	26.068	N.2	2	GMP3852	0.000	
@<TRIPOS>BOND
1 1 2 1
2 3 4 1
3 3 5 1
4 4 9 1
5 5 6 1
6 5 7 1
7 7 8 1
8 7 9 1
9 9 20 1
10 10 11 ar
11 10 16 ar
12 11 12 1
13 11 13 ar
14 13 14 ar
15 14 15 ar
16 14 20 ar
17 15 16 ar
18 15 18 ar
19 16 17 2
20 18 19 ar
21 19 20 ar
22 1 3 1
@<TRIPOS>SUBSTRUCTURE
1	GMP01	1	GROUP	1 ****	GMP0
2	GMP3852	3	GROUP	1 ****	GMP385
