# created with PyMOL 2.5.0
@<TRIPOS>MOLECULE
3DMH
18 20 1                 
SMALL
USER_CHARGES
@<TRIPOS>ATOM
1	 C4'	29.285	44.491	27.195	C.3	1	GMP385	0.000	
2	 O4'	29.713	45.859	27.199	O.3	1	GMP385	0.000	
3	 C3'	29.547	43.966	25.793	C.3	1	GMP385	0.000	
4	 O3'	28.316	44.053	25.064	O.3	1	GMP385	0.000	
5	 C2'	30.550	44.949	25.216	C.3	1	GMP385	0.000	
6	 O2'	30.430	45.051	23.797	O.3	1	GMP385	0.000	
7	 C1'	30.146	46.248	25.892	C.3	1	GMP385	0.000	
8	  N1	31.133	51.331	26.255	N.2	1	GMP385	0.000	
9	  C2	29.958	50.684	26.055	C.2	1	GMP385	0.000	
10	  N2	28.799	51.371	25.914	N.pl3	1	GMP385	0.000	
11	  N3	29.875	49.326	25.982	N.2	1	GMP385	0.000	
12	  C4	30.989	48.563	26.113	C.2	1	GMP385	0.000	
13	  C5	32.297	49.206	26.329	C.2	1	GMP385	0.000	
14	  C6	32.308	50.691	26.398	C.2	1	GMP385	0.000	
15	  O6	33.372	51.318	26.583	O.2	1	GMP385	0.000	
16	  N7	33.207	48.209	26.402	N.2	1	GMP385	0.000	
17	  C8	32.536	47.037	26.256	C.2	1	GMP385	0.000	
18	  N9	31.222	47.246	26.068	N.2	1	GMP385	0.000	
@<TRIPOS>BOND
1 1 2 1
2 1 3 1
3 2 7 1
4 3 4 1
5 3 5 1
6 5 6 1
7 5 7 1
8 7 18 1
9 8 9 ar
10 8 14 ar
11 9 10 1
12 9 11 ar
13 11 12 ar
14 12 13 ar
15 12 18 ar
16 13 14 ar
17 13 16 ar
18 14 15 2
19 16 17 ar
20 17 18 ar
@<TRIPOS>SUBSTRUCTURE
1	GMP385	1	GROUP	1 A	GMP
