@<TRIPOS>MOLECULE
3DMH.A
51 53 1 0 0 
SMALL
USER_CHARGES


@<TRIPOS>ATOM
  1 N       24.2830    57.6020    22.2200 N.4   1 SAM  -0.8530 
  2 H1      25.0680    57.4492    22.8368 H     1 SAM   0.4500 
  3 H2      23.5184    58.0059    22.7419 H     1 SAM   0.4500 
  4 H3      24.5548    58.2321    21.4789 H     1 SAM   0.4500 
  5 CA      23.8480    56.2900    21.6280 C.3   1 SAM   0.3170 
  6 HA      23.0017    56.4774    20.9671 H     1 SAM   0.0800 
  7 C       23.4650    55.3480    22.7490 C.2   1 SAM   0.9060 
  8 O       23.7950    55.6970    23.8910 O.co2 1 SAM  -0.9000 
  9 CB      24.9720    55.6460    20.8130 C.3   1 SAM  -0.1600 
 10 HB1     25.2201    56.3209    19.9938 H     1 SAM   0.0800 
 11 HB2     24.5957    54.7064    20.4084 H     1 SAM   0.0800 
 12 CG      26.2620    55.3440    21.5800 C.3   1 SAM  -0.1525 
 13 HG1     26.0241    54.7212    22.4423 H     1 SAM   0.0800 
 14 HG2     26.7005    56.2824    21.9195 H     1 SAM   0.0800 
 15 SD      27.4700    54.4700    20.5330 S.3   1 SAM   0.9775 
 16 CE      28.5180    53.6670    21.7800 C.3   1 SAM  -0.2325 
 17 HE1     27.9652    52.8535    22.2498 H     1 SAM   0.0800 
 18 HE2     28.8050    54.3963    22.5375 H     1 SAM   0.0800 
 19 HE3     29.4127    53.2693    21.3011 H     1 SAM   0.0800 
 20 C5'     28.6090    55.7490    19.9270 C.3   1 SAM  -0.1525 
 21 H5'1    29.5232    55.2677    19.5797 H     1 SAM   0.0800 
 22 H5'2    28.8442    56.4261    20.7482 H     1 SAM   0.0800 
 23 C4'     28.0170    56.5560    18.7830 C.3   1 SAM   0.2000 
 24 H4'     27.1150    57.0508    19.1430 H     1 SAM   0.0800 
 25 O4'     29.0650    57.4270    18.3640 O.3   1 SAM  -0.5600 
 26 C3'     27.5710    55.7310    17.5680 C.3   1 SAM   0.2000 
 27 H3'     27.5884    54.6559    17.7465 H     1 SAM   0.0800 
 28 O3'     26.2180    55.9950    17.2200 O.3   1 SAM  -0.6800 
 29 H3'     26.0146    55.4811    16.4351 H     1 SAM   0.4000 
 30 C2'     28.5590    56.1540    16.4760 C.3   1 SAM   0.2000 
 31 H2'     29.4176    55.4915    16.3667 H     1 SAM   0.0800 
 32 O2'     28.0630    56.0930    15.1530 O.3   1 SAM  -0.6800 
 33 H2'     27.2822    56.6498    15.1098 H     1 SAM   0.4000 
 34 C1'     28.8860    57.5620    16.9680 C.3   1 SAM   0.5691 
 35 H1'     28.0934    58.2655    16.7131 H     1 SAM   0.0800 
 36 OXT     22.8870    54.2800    22.4870 O.co2 1 SAM  -0.9000 
 37 N1      31.1350    61.8710    15.3950 N.2   1 SAM  -0.6610 
 38 C2      29.9060    61.6930    15.9900 C.2   1 SAM   0.6010 
 39 H2      29.2918    62.5562    16.1999 H     1 SAM   0.0600 
 40 N3      29.4370    60.4280    16.3270 N.2   1 SAM  -0.6610 
 41 C4      30.2760    59.3930    16.0990 C.2   1 SAM   0.5000 
 42 C5      31.5560    59.5350    15.5240 C.2   1 SAM   0.4500 
 43 C6      31.9780    60.8140    15.1420 C.2   1 SAM   0.6110 
 44 N6      33.1560    61.0060    14.5330 N.2   1 SAM  -0.2000 
 45 H62     33.4406    61.9376    14.2660 H     1 SAM   0.4000 
 46 H61     33.7594    60.2191    14.3409 H     1 SAM   0.4000 
 47 N7      32.1230    58.2810    15.4320 N.2   1 SAM  -0.6960 
 48 C8      31.2250    57.3930    15.9250 C.3   1 SAM   0.4551 
 49 H81     31.6647    56.8584    16.7670 H     1 SAM   0.0800 
 50 H82     30.9500    56.6814    15.1465 H     1 SAM   0.0800 
 51 N9      30.0910    58.0810    16.3500 N.pl3 1 SAM  -0.7882 
@<TRIPOS>BOND
  1   1   2  1   
  2   1   3  1   
  3   1   4  1   
  4   1   5  1   
  5   5   6  1   
  6   5   7  1   
  7   5   9  1   
  8   7   8  ar  
  9   7  36  ar  
 10   9  10  1   
 11   9  11  1   
 12   9  12  1   
 13  12  13  1   
 14  12  14  1   
 15  12  15  1   
 16  15  16  1   
 17  15  20  1   
 18  16  17  1   
 19  16  18  1   
 20  16  19  1   
 21  20  21  1   
 22  20  22  1   
 23  20  23  1   
 24  23  24  1   
 25  23  25  1   
 26  23  26  1   
 27  25  34  1   
 28  26  27  1   
 29  26  28  1   
 30  26  30  1   
 31  28  29  1   
 32  30  31  1   
 33  30  32  1   
 34  30  34  1   
 35  32  33  1   
 36  34  35  1   
 37  34  51  1   
 38  37  38  2   
 39  37  43  1   
 40  38  39  1   
 41  38  40  1   
 42  40  41  2   
 43  41  42  1   
 44  41  51  1   
 45  42  43  1   
 46  42  47  2   
 47  43  44  2   
 48  44  45  1   
 49  44  46  1   
 50  47  48  1   
 51  48  49  1   
 52  48  50  1   
 53  48  51  1   
@<TRIPOS>SUBSTRUCTURE
  1 SAM  25 GROUP 4 A **** 0

# MOE 2022.02 (io_trps.svl 2020.11)
