# created with PyMOL 2.4.0
@<TRIPOS>MOLECULE
temp
50 52 1                 
SMALL
USER_CHARGES
@<TRIPOS>ATOM
1	   N	24.283	57.602	22.220	N.4	1	SAM1	0.000	
2	  CA	23.848	56.290	21.628	C.3	1	SAM1	0.000	
3	   C	23.465	55.348	22.749	C.2	1	SAM1	0.000	
4	   O	23.795	55.697	23.891	O.co2	1	SAM1	0.000	
5	  CB	24.972	55.646	20.813	C.3	1	SAM1	0.000	
6	  CG	26.262	55.344	21.580	C.3	1	SAM1	0.000	
7	  SD	27.470	54.470	20.533	S.3	1	SAM1	0.000	
8	  CE	28.518	53.667	21.780	C.3	1	SAM1	0.000	
9	 C5'	28.609	55.749	19.927	C.3	1	SAM1	0.000	
10	 C4'	28.017	56.556	18.783	C.3	1	SAM1	0.000	
11	 O4'	29.065	57.427	18.364	O.3	1	SAM1	0.000	
12	 C3'	27.571	55.731	17.568	C.3	1	SAM1	0.000	
13	 O3'	26.218	55.995	17.220	O.3	1	SAM1	0.000	
14	 C2'	28.559	56.154	16.476	C.3	1	SAM1	0.000	
15	 O2'	28.063	56.093	15.153	O.3	1	SAM1	0.000	
16	 C1'	28.886	57.562	16.968	C.3	1	SAM1	0.000	
17	 OXT	22.887	54.280	22.487	O.co2	1	SAM1	0.000	
18	  N1	31.135	61.871	15.395	N.2	1	SAM1	0.000	
19	  C2	29.906	61.693	15.990	C.2	1	SAM1	0.000	
20	  N3	29.437	60.428	16.327	N.2	1	SAM1	0.000	
21	  C4	30.276	59.393	16.099	C.2	1	SAM1	0.000	
22	  C5	31.556	59.535	15.524	C.2	1	SAM1	0.000	
23	  C6	31.978	60.814	15.142	C.2	1	SAM1	0.000	
24	  N6	33.156	61.006	14.533	N.pl3	1	SAM1	0.000	
25	  N7	32.123	58.281	15.432	N.2	1	SAM1	0.000	
26	  C8	31.225	57.393	15.925	C.2	1	SAM1	0.000	
27	  N9	30.091	58.081	16.350	N.2	1	SAM1	0.000	
28	  HA	23.002	56.477	20.967	 H	1	SAM1	0.000	
29	 HB1	25.220	56.321	19.994	 H	1	SAM1	0.000	
30	 HB2	24.596	54.706	20.408	 H	1	SAM1	0.000	
31	 HG1	26.024	54.721	22.442	 H	1	SAM1	0.000	
32	 HG2	26.701	56.282	21.920	 H	1	SAM1	0.000	
33	 HE1	27.965	52.854	22.250	 H	1	SAM1	0.000	
34	 HE2	28.805	54.396	22.538	 H	1	SAM1	0.000	
35	 HE3	29.413	53.269	21.301	 H	1	SAM1	0.000	
36	  H1	25.068	57.449	22.837	 H	1	SAM1	0.000	
37	  H2	23.518	58.006	22.742	 H	1	SAM1	0.000	
38	  H2	29.292	62.556	16.200	 H	1	SAM1	0.000	
39	  H3	24.555	58.232	21.479	 H	1	SAM1	0.000	
40	  H8	31.366	56.324	15.979	 H	1	SAM1	0.000	
41	 H1'	28.093	58.265	16.713	 H	1	SAM1	0.000	
42	 H2'	29.418	55.492	16.367	 H	1	SAM1	0.000	
43	 H2'	27.848	55.176	14.966	 H	1	SAM1	0.000	
44	 H3'	27.588	54.656	17.747	 H	1	SAM1	0.000	
45	 H3'	26.015	55.481	16.435	 H	1	SAM1	0.000	
46	 H4'	27.115	57.051	19.143	 H	1	SAM1	0.000	
47	 H61	33.759	60.219	14.341	 H	1	SAM1	0.000	
48	 H62	33.441	61.938	14.266	 H	1	SAM1	0.000	
49	H5'1	29.523	55.268	19.580	 H	1	SAM1	0.000	
50	H5'2	28.844	56.426	20.748	 H	1	SAM1	0.000	
@<TRIPOS>BOND
1 1 2 1
2 1 36 1
3 1 37 1
4 1 39 1
5 2 3 1
6 2 5 1
7 2 28 1
8 3 4 ar
9 3 17 ar
10 5 6 1
11 5 29 1
12 5 30 1
13 6 7 1
14 6 31 1
15 6 32 1
16 7 8 1
17 7 9 1
18 8 33 1
19 8 34 1
20 8 35 1
21 9 10 1
22 9 49 1
23 9 50 1
24 10 11 1
25 10 12 1
26 10 46 1
27 11 16 1
28 12 13 1
29 12 14 1
30 12 44 1
31 13 45 1
32 14 15 1
33 14 16 1
34 14 42 1
35 15 43 1
36 16 27 1
37 16 41 1
38 18 19 ar
39 18 23 ar
40 19 20 ar
41 19 38 1
42 20 21 ar
43 21 22 ar
44 21 27 ar
45 22 23 ar
46 22 25 ar
47 23 24 1
48 24 47 1
49 24 48 1
50 25 26 ar
51 26 27 ar
52 26 40 1
@<TRIPOS>SUBSTRUCTURE
1	SAM1	1	GROUP	1 A	SAM
