# created with PyMOL 2.5.0
@<TRIPOS>MOLECULE
3DMH
27 29 1                 
SMALL
USER_CHARGES
@<TRIPOS>ATOM
1	   N	24.283	57.602	22.220	N.3	1	SAM384	0.000	
2	  CA	23.848	56.290	21.628	C.3	1	SAM384	0.000	
3	   C	23.465	55.348	22.749	C.2	1	SAM384	0.000	
4	   O	23.795	55.697	23.891	O.co2	1	SAM384	0.000	
5	  CB	24.972	55.646	20.813	C.3	1	SAM384	0.000	
6	  CG	26.262	55.344	21.580	C.3	1	SAM384	0.000	
7	  SD	27.470	54.470	20.533	S.3	1	SAM384	0.000	
8	  CE	28.518	53.667	21.780	C.3	1	SAM384	0.000	
9	 C5'	28.609	55.749	19.927	C.3	1	SAM384	0.000	
10	 C4'	28.017	56.556	18.783	C.3	1	SAM384	0.000	
11	 O4'	29.065	57.427	18.364	O.3	1	SAM384	0.000	
12	 C3'	27.571	55.731	17.568	C.3	1	SAM384	0.000	
13	 O3'	26.218	55.995	17.220	O.3	1	SAM384	0.000	
14	 C2'	28.559	56.154	16.476	C.3	1	SAM384	0.000	
15	 O2'	28.063	56.093	15.153	O.3	1	SAM384	0.000	
16	 C1'	28.886	57.562	16.968	C.3	1	SAM384	0.000	
17	 OXT	22.887	54.280	22.487	O.co2	1	SAM384	0.000	
18	  N1	31.135	61.871	15.395	N.2	1	SAM384	0.000	
19	  C2	29.906	61.693	15.990	C.2	1	SAM384	0.000	
20	  N3	29.437	60.428	16.327	N.2	1	SAM384	0.000	
21	  C4	30.276	59.393	16.099	C.2	1	SAM384	0.000	
22	  C5	31.556	59.535	15.524	C.2	1	SAM384	0.000	
23	  C6	31.978	60.814	15.142	C.2	1	SAM384	0.000	
24	  N6	33.156	61.006	14.533	N.pl3	1	SAM384	0.000	
25	  N7	32.123	58.281	15.432	N.2	1	SAM384	0.000	
26	  C8	31.225	57.393	15.925	C.2	1	SAM384	0.000	
27	  N9	30.091	58.081	16.350	N.2	1	SAM384	0.000	
@<TRIPOS>BOND
1 1 2 1
2 2 3 1
3 2 5 1
4 3 4 ar
5 3 17 ar
6 5 6 1
7 6 7 1
8 7 8 1
9 7 9 1
10 9 10 1
11 10 11 1
12 10 12 1
13 11 16 1
14 12 13 1
15 12 14 1
16 14 15 1
17 14 16 1
18 16 27 1
19 18 19 ar
20 18 23 ar
21 19 20 ar
22 20 21 ar
23 21 22 ar
24 21 27 ar
25 22 23 ar
26 22 25 ar
27 23 24 1
28 25 26 ar
29 26 27 ar
@<TRIPOS>SUBSTRUCTURE
1	SAM384	1	GROUP	1 A	SAM
