@<TRIPOS>MOLECULE
3G88.A
51 53 1 0 0 
SMALL
USER_CHARGES


@<TRIPOS>ATOM
  1 N      -20.4390    43.8640    15.4190 N.4   1 SAM  -0.8530 
  2 H1     -21.4095    43.7413    15.1678 H     1 SAM   0.4500 
  3 H2     -19.8519    43.5059    14.6793 H     1 SAM   0.4500 
  4 H3     -20.2479    44.8464    15.5547 H     1 SAM   0.4500 
  5 CA     -20.1610    43.1390    16.6550 C.3   1 SAM   0.3170 
  6 HA     -19.1067    43.3065    16.8755 H     1 SAM   0.0800 
  7 C      -20.3830    41.6420    16.5040 C.2   1 SAM   0.9060 
  8 O      -19.9560    40.8610    17.3510 O.co2 1 SAM  -0.9000 
  9 CB     -20.9960    43.6680    17.8150 C.3   1 SAM  -0.1600 
 10 HB1    -20.9411    44.7562    17.7856 H     1 SAM   0.0800 
 11 HB2    -20.5393    43.3059    18.7361 H     1 SAM   0.0800 
 12 CG     -22.4720    43.2880    17.8590 C.3   1 SAM  -0.1525 
 13 HG1    -22.5674    42.2058    17.9470 H     1 SAM   0.0800 
 14 HG2    -22.9621    43.6228    16.9448 H     1 SAM   0.0800 
 15 SD     -23.2490    44.0830    19.2890 S.3   1 SAM   0.9775 
 16 CE     -24.7950    43.1550    19.4580 C.3   1 SAM  -0.2325 
 17 HE1    -24.5821    42.1645    19.8601 H     1 SAM   0.0800 
 18 HE2    -25.2683    43.0565    18.4811 H     1 SAM   0.0800 
 19 HE3    -25.4651    43.6854    20.1346 H     1 SAM   0.0800 
 20 C5'    -23.7980    45.6780    18.6170 C.3   1 SAM  -0.1525 
 21 H5'1   -24.7491    45.9462    19.0769 H     1 SAM   0.0800 
 22 H5'2   -23.9302    45.5803    17.5395 H     1 SAM   0.0800 
 23 C4'    -22.7830    46.7900    18.8930 C.3   1 SAM   0.2000 
 24 H4'    -21.8230    46.3513    18.6210 H     1 SAM   0.0800 
 25 O4'    -23.0560    47.9470    18.1330 O.3   1 SAM  -0.5600 
 26 C3'    -22.7570    47.2320    20.3510 C.3   1 SAM   0.2000 
 27 H3'    -23.4042    46.6334    20.9921 H     1 SAM   0.0800 
 28 O3'    -21.4330    47.1160    20.8260 O.3   1 SAM  -0.6800 
 29 H3'    -21.4188    47.4424    21.7287 H     1 SAM   0.4000 
 30 C2'    -23.1960    48.6910    20.3410 C.3   1 SAM   0.2000 
 31 H2'    -24.2408    48.8155    20.6254 H     1 SAM   0.0800 
 32 O2'    -22.5040    49.4930    21.2780 O.3   1 SAM  -0.6800 
 33 H2'    -21.5668    49.4267    21.0807 H     1 SAM   0.4000 
 34 C1'    -22.8730    49.1060    18.9120 C.3   1 SAM   0.5691 
 35 H1'    -21.8689    49.5300    18.9066 H     1 SAM   0.0800 
 36 OXT    -20.9750    41.1850    15.5290 O.co2 1 SAM  -0.9000 
 37 N1     -23.2530    53.8950    16.8310 N.2   1 SAM  -0.6610 
 38 C2     -22.1180    53.2400    17.2590 C.2   1 SAM   0.6010 
 39 H2     -21.1577    53.7275    17.1772 H     1 SAM   0.0600 
 40 N3     -22.1940    51.9730    17.7890 N.2   1 SAM  -0.6610 
 41 C4     -23.4040    51.3660    17.8890 C.2   1 SAM   0.5000 
 42 C5     -24.5610    51.9940    17.4450 C.2   1 SAM   0.4500 
 43 C6     -24.4790    53.2760    16.9210 C.2   1 SAM   0.6110 
 44 N6     -25.5760    53.8940    16.5050 N.2   1 SAM  -0.2000 
 45 H62    -25.5160    54.8273    16.1236 H     1 SAM   0.4000 
 46 H61    -26.4715    53.4314    16.5696 H     1 SAM   0.4000 
 47 N7     -25.6020    51.1480    17.6510 N.2   1 SAM  -0.6960 
 48 C8     -25.1400    50.0060    18.2120 C.3   1 SAM   0.4551 
 49 H81    -25.3736    49.1570    17.5696 H     1 SAM   0.0800 
 50 H82    -25.6013    49.8603    19.1888 H     1 SAM   0.0800 
 51 N9     -23.7770    50.1250    18.3520 N.pl3 1 SAM  -0.7882 
@<TRIPOS>BOND
  1   1   2  1   
  2   1   3  1   
  3   1   4  1   
  4   1   5  1   
  5   5   6  1   
  6   5   7  1   
  7   5   9  1   
  8   7   8  ar  
  9   7  36  ar  
 10   9  10  1   
 11   9  11  1   
 12   9  12  1   
 13  12  13  1   
 14  12  14  1   
 15  12  15  1   
 16  15  16  1   
 17  15  20  1   
 18  16  17  1   
 19  16  18  1   
 20  16  19  1   
 21  20  21  1   
 22  20  22  1   
 23  20  23  1   
 24  23  24  1   
 25  23  25  1   
 26  23  26  1   
 27  25  34  1   
 28  26  27  1   
 29  26  28  1   
 30  26  30  1   
 31  28  29  1   
 32  30  31  1   
 33  30  32  1   
 34  30  34  1   
 35  32  33  1   
 36  34  35  1   
 37  34  51  1   
 38  37  38  2   
 39  37  43  1   
 40  38  39  1   
 41  38  40  1   
 42  40  41  2   
 43  41  42  1   
 44  41  51  1   
 45  42  43  1   
 46  42  47  2   
 47  43  44  2   
 48  44  45  1   
 49  44  46  1   
 50  47  48  1   
 51  48  49  1   
 52  48  50  1   
 53  48  51  1   
@<TRIPOS>SUBSTRUCTURE
  1 SAM  25 GROUP 4 A **** 0

# MOE 2022.02 (io_trps.svl 2020.11)
