# created with PyMOL 2.4.0
@<TRIPOS>MOLECULE
temp
50 52 1                 
SMALL
USER_CHARGES
@<TRIPOS>ATOM
1	   N	-20.439	43.864	15.419	N.4	1	SAM1	0.000	
2	  CA	-20.161	43.139	16.655	C.3	1	SAM1	0.000	
3	   C	-20.383	41.642	16.504	C.2	1	SAM1	0.000	
4	   O	-19.956	40.861	17.351	O.co2	1	SAM1	0.000	
5	  CB	-20.996	43.668	17.815	C.3	1	SAM1	0.000	
6	  CG	-22.472	43.288	17.859	C.3	1	SAM1	0.000	
7	  SD	-23.249	44.083	19.289	S.3	1	SAM1	0.000	
8	  CE	-24.795	43.155	19.458	C.3	1	SAM1	0.000	
9	 C5'	-23.798	45.678	18.617	C.3	1	SAM1	0.000	
10	 C4'	-22.783	46.790	18.893	C.3	1	SAM1	0.000	
11	 O4'	-23.056	47.947	18.133	O.3	1	SAM1	0.000	
12	 C3'	-22.757	47.232	20.351	C.3	1	SAM1	0.000	
13	 O3'	-21.433	47.116	20.826	O.3	1	SAM1	0.000	
14	 C2'	-23.196	48.691	20.341	C.3	1	SAM1	0.000	
15	 O2'	-22.504	49.493	21.278	O.3	1	SAM1	0.000	
16	 C1'	-22.873	49.106	18.912	C.3	1	SAM1	0.000	
17	 OXT	-20.975	41.185	15.529	O.co2	1	SAM1	0.000	
18	  N1	-23.253	53.895	16.831	N.2	1	SAM1	0.000	
19	  C2	-22.118	53.240	17.259	C.2	1	SAM1	0.000	
20	  N3	-22.194	51.973	17.789	N.2	1	SAM1	0.000	
21	  C4	-23.404	51.366	17.889	C.2	1	SAM1	0.000	
22	  C5	-24.561	51.994	17.445	C.2	1	SAM1	0.000	
23	  C6	-24.479	53.276	16.921	C.2	1	SAM1	0.000	
24	  N6	-25.576	53.894	16.505	N.pl3	1	SAM1	0.000	
25	  N7	-25.602	51.148	17.651	N.2	1	SAM1	0.000	
26	  C8	-25.140	50.006	18.212	C.2	1	SAM1	0.000	
27	  N9	-23.777	50.125	18.352	N.2	1	SAM1	0.000	
28	  HA	-19.107	43.306	16.875	 H	1	SAM1	0.000	
29	 HB1	-20.941	44.756	17.786	 H	1	SAM1	0.000	
30	 HB2	-20.539	43.306	18.736	 H	1	SAM1	0.000	
31	 HG1	-22.567	42.206	17.947	 H	1	SAM1	0.000	
32	 HG2	-22.962	43.623	16.945	 H	1	SAM1	0.000	
33	 HE1	-24.582	42.165	19.860	 H	1	SAM1	0.000	
34	 HE2	-25.268	43.056	18.481	 H	1	SAM1	0.000	
35	 HE3	-25.465	43.685	20.135	 H	1	SAM1	0.000	
36	  H1	-21.410	43.741	15.168	 H	1	SAM1	0.000	
37	  H2	-19.852	43.506	14.679	 H	1	SAM1	0.000	
38	  H2	-21.158	53.728	17.177	 H	1	SAM1	0.000	
39	  H3	-20.248	44.846	15.555	 H	1	SAM1	0.000	
40	  H8	-25.736	49.152	18.499	 H	1	SAM1	0.000	
41	 H1'	-21.869	49.530	18.907	 H	1	SAM1	0.000	
42	 H2'	-24.241	48.815	20.625	 H	1	SAM1	0.000	
43	 H2'	-21.567	49.427	21.081	 H	1	SAM1	0.000	
44	 H3'	-23.404	46.633	20.992	 H	1	SAM1	0.000	
45	 H3'	-21.419	47.442	21.729	 H	1	SAM1	0.000	
46	 H4'	-21.823	46.351	18.621	 H	1	SAM1	0.000	
47	 H61	-26.472	53.431	16.570	 H	1	SAM1	0.000	
48	 H62	-25.516	54.827	16.124	 H	1	SAM1	0.000	
49	H5'1	-24.749	45.946	19.077	 H	1	SAM1	0.000	
50	H5'2	-23.930	45.580	17.539	 H	1	SAM1	0.000	
@<TRIPOS>BOND
1 1 2 1
2 1 36 1
3 1 37 1
4 1 39 1
5 2 3 1
6 2 5 1
7 2 28 1
8 3 4 ar
9 3 17 ar
10 5 6 1
11 5 29 1
12 5 30 1
13 6 7 1
14 6 31 1
15 6 32 1
16 7 8 1
17 7 9 1
18 8 33 1
19 8 34 1
20 8 35 1
21 9 10 1
22 9 49 1
23 9 50 1
24 10 11 1
25 10 12 1
26 10 46 1
27 11 16 1
28 12 13 1
29 12 14 1
30 12 44 1
31 13 45 1
32 14 15 1
33 14 16 1
34 14 42 1
35 15 43 1
36 16 27 1
37 16 41 1
38 18 19 ar
39 18 23 ar
40 19 20 ar
41 19 38 1
42 20 21 ar
43 21 22 ar
44 21 27 ar
45 22 23 ar
46 22 25 ar
47 23 24 1
48 24 47 1
49 24 48 1
50 25 26 ar
51 26 27 ar
52 26 40 1
@<TRIPOS>SUBSTRUCTURE
1	SAM1	1	GROUP	1 A	SAM
