# created with PyMOL 2.5.0
@<TRIPOS>MOLECULE
3G88
27 29 1                 
SMALL
USER_CHARGES
@<TRIPOS>ATOM
1	   N	-20.439	43.864	15.419	N.3	1	SAM303	0.000	
2	  CA	-20.161	43.139	16.655	C.3	1	SAM303	0.000	
3	   C	-20.383	41.642	16.504	C.2	1	SAM303	0.000	
4	   O	-19.956	40.861	17.351	O.co2	1	SAM303	0.000	
5	  CB	-20.996	43.668	17.815	C.3	1	SAM303	0.000	
6	  CG	-22.472	43.288	17.859	C.3	1	SAM303	0.000	
7	  SD	-23.249	44.083	19.289	S.3	1	SAM303	0.000	
8	  CE	-24.795	43.155	19.458	C.3	1	SAM303	0.000	
9	 C5'	-23.798	45.678	18.617	C.3	1	SAM303	0.000	
10	 C4'	-22.783	46.790	18.893	C.3	1	SAM303	0.000	
11	 O4'	-23.056	47.947	18.133	O.3	1	SAM303	0.000	
12	 C3'	-22.757	47.232	20.351	C.3	1	SAM303	0.000	
13	 O3'	-21.433	47.116	20.826	O.3	1	SAM303	0.000	
14	 C2'	-23.196	48.691	20.341	C.3	1	SAM303	0.000	
15	 O2'	-22.504	49.493	21.278	O.3	1	SAM303	0.000	
16	 C1'	-22.873	49.106	18.912	C.3	1	SAM303	0.000	
17	 OXT	-20.975	41.185	15.529	O.co2	1	SAM303	0.000	
18	  N1	-23.253	53.895	16.831	N.2	1	SAM303	0.000	
19	  C2	-22.118	53.240	17.259	C.2	1	SAM303	0.000	
20	  N3	-22.194	51.973	17.789	N.2	1	SAM303	0.000	
21	  C4	-23.404	51.366	17.889	C.2	1	SAM303	0.000	
22	  C5	-24.561	51.994	17.445	C.2	1	SAM303	0.000	
23	  C6	-24.479	53.276	16.921	C.2	1	SAM303	0.000	
24	  N6	-25.576	53.894	16.505	N.pl3	1	SAM303	0.000	
25	  N7	-25.602	51.148	17.651	N.2	1	SAM303	0.000	
26	  C8	-25.140	50.006	18.212	C.2	1	SAM303	0.000	
27	  N9	-23.777	50.125	18.352	N.2	1	SAM303	0.000	
@<TRIPOS>BOND
1 1 2 1
2 2 3 1
3 2 5 1
4 3 4 ar
5 3 17 ar
6 5 6 1
7 6 7 1
8 7 8 1
9 7 9 1
10 9 10 1
11 10 11 1
12 10 12 1
13 11 16 1
14 12 13 1
15 12 14 1
16 14 15 1
17 14 16 1
18 16 27 1
19 18 19 ar
20 18 23 ar
21 19 20 ar
22 20 21 ar
23 21 22 ar
24 21 27 ar
25 22 23 ar
26 22 25 ar
27 23 24 1
28 25 26 ar
29 26 27 ar
@<TRIPOS>SUBSTRUCTURE
1	SAM303	1	GROUP	1 A	SAM
