# created with PyMOL 2.5.0
@<TRIPOS>MOLECULE
5T0M
27 29 1                 
SMALL
USER_CHARGES
@<TRIPOS>ATOM
1	   N	28.348	16.759	10.422	N.3	1	SAM1205	0.000	
2	  CA	27.891	17.709	11.428	C.3	1	SAM1205	0.000	
3	   C	28.717	17.593	12.700	C.2	1	SAM1205	0.000	
4	   O	29.684	16.819	12.750	O.co2	1	SAM1205	0.000	
5	  CB	26.395	17.533	11.713	C.3	1	SAM1205	0.000	
6	  CG	25.482	18.214	10.698	C.3	1	SAM1205	0.000	
7	  SD	25.395	20.001	10.996	S.3	1	SAM1205	0.000	
8	  CE	23.602	20.251	11.111	C.3	1	SAM1205	0.000	
9	 C5'	25.717	20.705	9.368	C.3	1	SAM1205	0.000	
10	 C4'	27.215	20.728	9.079	C.3	1	SAM1205	0.000	
11	 O4'	27.688	19.417	8.824	O.3	1	SAM1205	0.000	
12	 C3'	27.514	21.551	7.844	C.3	1	SAM1205	0.000	
13	 O3'	27.746	22.901	8.180	O.3	1	SAM1205	0.000	
14	 C2'	28.746	20.872	7.313	C.3	1	SAM1205	0.000	
15	 O2'	29.853	21.339	8.043	O.3	1	SAM1205	0.000	
16	 C1'	28.515	19.422	7.678	C.3	1	SAM1205	0.000	
17	 OXT	28.438	18.280	13.690	O.co2	1	SAM1205	0.000	
18	  N1	28.730	17.696	2.748	N.2	1	SAM1205	0.000	
19	  C2	29.733	18.280	3.489	C.2	1	SAM1205	0.000	
20	  N3	29.500	18.674	4.789	N.2	1	SAM1205	0.000	
21	  C4	28.274	18.488	5.341	C.2	1	SAM1205	0.000	
22	  C5	27.247	17.904	4.614	C.2	1	SAM1205	0.000	
23	  C6	27.478	17.503	3.304	C.2	1	SAM1205	0.000	
24	  N6	26.512	16.939	2.589	N.pl3	1	SAM1205	0.000	
25	  N7	26.150	17.855	5.410	N.2	1	SAM1205	0.000	
26	  C8	26.458	18.392	6.612	C.2	1	SAM1205	0.000	
27	  N9	27.777	18.775	6.583	N.2	1	SAM1205	0.000	
@<TRIPOS>BOND
1 1 2 1
2 2 3 1
3 2 5 1
4 3 4 ar
5 3 17 ar
6 5 6 1
7 6 7 1
8 7 8 1
9 7 9 1
10 9 10 1
11 10 11 1
12 10 12 1
13 11 16 1
14 12 13 1
15 12 14 1
16 14 15 1
17 14 16 1
18 16 27 1
19 18 19 ar
20 18 23 ar
21 19 20 ar
22 20 21 ar
23 21 22 ar
24 21 27 ar
25 22 23 ar
26 22 25 ar
27 23 24 1
28 25 26 ar
29 26 27 ar
@<TRIPOS>SUBSTRUCTURE
1	SAM1205	1	GROUP	1 A	SAM
