# created with PyMOL 2.4.0
@<TRIPOS>MOLECULE
temp
50 52 1                 
SMALL
USER_CHARGES
@<TRIPOS>ATOM
1	   N	28.348	16.759	10.422	N.4	1	SAM1	0.000	
2	  CA	27.891	17.709	11.428	C.3	1	SAM1	0.000	
3	   C	28.717	17.593	12.700	C.2	1	SAM1	0.000	
4	   O	29.684	16.819	12.750	O.co2	1	SAM1	0.000	
5	  CB	26.395	17.533	11.713	C.3	1	SAM1	0.000	
6	  CG	25.482	18.214	10.698	C.3	1	SAM1	0.000	
7	  SD	25.395	20.001	10.996	S.3	1	SAM1	0.000	
8	  CE	23.602	20.251	11.111	C.3	1	SAM1	0.000	
9	 C5'	25.717	20.705	9.368	C.3	1	SAM1	0.000	
10	 C4'	27.215	20.728	9.079	C.3	1	SAM1	0.000	
11	 O4'	27.688	19.417	8.824	O.3	1	SAM1	0.000	
12	 C3'	27.514	21.551	7.844	C.3	1	SAM1	0.000	
13	 O3'	27.746	22.901	8.180	O.3	1	SAM1	0.000	
14	 C2'	28.746	20.872	7.313	C.3	1	SAM1	0.000	
15	 O2'	29.853	21.339	8.043	O.3	1	SAM1	0.000	
16	 C1'	28.515	19.422	7.678	C.3	1	SAM1	0.000	
17	 OXT	28.438	18.280	13.690	O.co2	1	SAM1	0.000	
18	  N1	28.730	17.696	2.748	N.2	1	SAM1	0.000	
19	  C2	29.733	18.280	3.489	C.2	1	SAM1	0.000	
20	  N3	29.500	18.674	4.789	N.2	1	SAM1	0.000	
21	  C4	28.274	18.488	5.341	C.2	1	SAM1	0.000	
22	  C5	27.247	17.904	4.614	C.2	1	SAM1	0.000	
23	  C6	27.478	17.503	3.304	C.2	1	SAM1	0.000	
24	  N6	26.512	16.939	2.589	N.pl3	1	SAM1	0.000	
25	  N7	26.150	17.855	5.410	N.2	1	SAM1	0.000	
26	  C8	26.458	18.392	6.612	C.2	1	SAM1	0.000	
27	  N9	27.777	18.775	6.583	N.2	1	SAM1	0.000	
28	  HA	28.033	18.715	11.032	 H	1	SAM1	0.000	
29	 HB1	26.183	17.950	12.698	 H	1	SAM1	0.000	
30	 HB2	26.170	16.466	11.714	 H	1	SAM1	0.000	
31	 HG1	24.481	17.790	10.779	 H	1	SAM1	0.000	
32	 HG2	25.871	18.039	9.695	 H	1	SAM1	0.000	
33	 HE1	23.242	19.867	12.066	 H	1	SAM1	0.000	
34	 HE2	23.108	19.721	10.297	 H	1	SAM1	0.000	
35	 HE3	23.378	21.315	11.040	 H	1	SAM1	0.000	
36	  H1	28.226	15.818	10.767	 H	1	SAM1	0.000	
37	  H2	29.325	16.921	10.225	 H	1	SAM1	0.000	
38	  H2	30.708	18.430	3.049	 H	1	SAM1	0.000	
39	  H3	27.810	16.880	9.576	 H	1	SAM1	0.000	
40	  H8	25.784	18.501	7.449	 H	1	SAM1	0.000	
41	 H1'	29.457	18.903	7.854	 H	1	SAM1	0.000	
42	 H2'	28.922	21.039	6.250	 H	1	SAM1	0.000	
43	 H2'	29.947	22.277	7.860	 H	1	SAM1	0.000	
44	 H3'	26.701	21.590	7.119	 H	1	SAM1	0.000	
45	 H3'	27.988	23.363	7.374	 H	1	SAM1	0.000	
46	 H4'	27.703	21.158	9.953	 H	1	SAM1	0.000	
47	 H61	25.599	16.798	2.997	 H	1	SAM1	0.000	
48	 H62	26.690	16.651	1.638	 H	1	SAM1	0.000	
49	H5'1	25.330	21.724	9.335	 H	1	SAM1	0.000	
50	H5'2	25.215	20.102	8.611	 H	1	SAM1	0.000	
@<TRIPOS>BOND
1 1 2 1
2 1 36 1
3 1 37 1
4 1 39 1
5 2 3 1
6 2 5 1
7 2 28 1
8 3 4 ar
9 3 17 ar
10 5 6 1
11 5 29 1
12 5 30 1
13 6 7 1
14 6 31 1
15 6 32 1
16 7 8 1
17 7 9 1
18 8 33 1
19 8 34 1
20 8 35 1
21 9 10 1
22 9 49 1
23 9 50 1
24 10 11 1
25 10 12 1
26 10 46 1
27 11 16 1
28 12 13 1
29 12 14 1
30 12 44 1
31 13 45 1
32 14 15 1
33 14 16 1
34 14 42 1
35 15 43 1
36 16 27 1
37 16 41 1
38 18 19 ar
39 18 23 ar
40 19 20 ar
41 19 38 1
42 20 21 ar
43 21 22 ar
44 21 27 ar
45 22 23 ar
46 22 25 ar
47 23 24 1
48 24 47 1
49 24 48 1
50 25 26 ar
51 26 27 ar
52 26 40 1
@<TRIPOS>SUBSTRUCTURE
1	SAM1	1	GROUP	1 A	SAM
