@<TRIPOS>MOLECULE
5T0M.A
51 53 1 0 0 
SMALL
USER_CHARGES


@<TRIPOS>ATOM
  1 N       28.3480    16.7590    10.4220 N.4   1 SAM  -0.8530 
  2 H1      28.2256    15.8179    10.7675 H     1 SAM   0.4500 
  3 H2      29.3253    16.9210    10.2253 H     1 SAM   0.4500 
  4 H3      27.8098    16.8797     9.5759 H     1 SAM   0.4500 
  5 CA      27.8910    17.7090    11.4280 C.3   1 SAM   0.3170 
  6 HA      28.0332    18.7146    11.0322 H     1 SAM   0.0800 
  7 C       28.7170    17.5930    12.7000 C.2   1 SAM   0.9060 
  8 O       29.6840    16.8190    12.7500 O.co2 1 SAM  -0.9000 
  9 CB      26.3950    17.5330    11.7130 C.3   1 SAM  -0.1600 
 10 HB1     26.1830    17.9498    12.6976 H     1 SAM   0.0800 
 11 HB2     26.1701    16.4665    11.7139 H     1 SAM   0.0800 
 12 CG      25.4820    18.2140    10.6980 C.3   1 SAM  -0.1525 
 13 HG1     24.4810    17.7903    10.7787 H     1 SAM   0.0800 
 14 HG2     25.8710    18.0386     9.6950 H     1 SAM   0.0800 
 15 SD      25.3950    20.0010    10.9960 S.3   1 SAM   0.9775 
 16 CE      23.6020    20.2510    11.1110 C.3   1 SAM  -0.2325 
 17 HE1     23.2421    19.8672    12.0656 H     1 SAM   0.0800 
 18 HE2     23.1082    19.7207    10.2967 H     1 SAM   0.0800 
 19 HE3     23.3782    21.3154    11.0398 H     1 SAM   0.0800 
 20 C5'     25.7170    20.7050     9.3680 C.3   1 SAM  -0.1525 
 21 H5'1    25.3303    21.7236     9.3354 H     1 SAM   0.0800 
 22 H5'2    25.2155    20.1016     8.6113 H     1 SAM   0.0800 
 23 C4'     27.2150    20.7280     9.0790 C.3   1 SAM   0.2000 
 24 H4'     27.7034    21.1582     9.9533 H     1 SAM   0.0800 
 25 O4'     27.6880    19.4170     8.8240 O.3   1 SAM  -0.5600 
 26 C3'     27.5140    21.5510     7.8440 C.3   1 SAM   0.2000 
 27 H3'     26.7008    21.5903     7.1192 H     1 SAM   0.0800 
 28 O3'     27.7460    22.9010     8.1800 O.3   1 SAM  -0.6800 
 29 H3'     28.4599    22.9219     8.8215 H     1 SAM   0.4000 
 30 C2'     28.7460    20.8720     7.3130 C.3   1 SAM   0.2000 
 31 H2'     28.9222    21.0386     6.2503 H     1 SAM   0.0800 
 32 O2'     29.8530    21.3390     8.0430 O.3   1 SAM  -0.6800 
 33 H2'     29.9467    22.2767     7.8600 H     1 SAM   0.4000 
 34 C1'     28.5150    19.4220     7.6780 C.3   1 SAM   0.5691 
 35 H1'     29.4571    18.9029     7.8545 H     1 SAM   0.0800 
 36 OXT     28.4380    18.2800    13.6900 O.co2 1 SAM  -0.9000 
 37 N1      28.7300    17.6960     2.7480 N.2   1 SAM  -0.6610 
 38 C2      29.7330    18.2800     3.4890 C.2   1 SAM   0.6010 
 39 H2      30.7078    18.4301     3.0490 H     1 SAM   0.0600 
 40 N3      29.5000    18.6740     4.7890 N.2   1 SAM  -0.6610 
 41 C4      28.2740    18.4880     5.3410 C.2   1 SAM   0.5000 
 42 C5      27.2470    17.9040     4.6140 C.2   1 SAM   0.4500 
 43 C6      27.4780    17.5030     3.3040 C.2   1 SAM   0.6110 
 44 N6      26.5120    16.9390     2.5890 N.2   1 SAM  -0.2000 
 45 H62     26.6904    16.6511     1.6375 H     1 SAM   0.4000 
 46 H61     25.5987    16.7978     2.9966 H     1 SAM   0.4000 
 47 N7      26.1500    17.8550     5.4100 N.2   1 SAM  -0.6960 
 48 C8      26.4580    18.3920     6.6120 C.3   1 SAM   0.4551 
 49 H81     26.3054    17.6517     7.3974 H     1 SAM   0.0800 
 50 H82     25.8256    19.2592     6.8022 H     1 SAM   0.0800 
 51 N9      27.7770    18.7750     6.5830 N.pl3 1 SAM  -0.7882 
@<TRIPOS>BOND
  1   1   2  1   
  2   1   3  1   
  3   1   4  1   
  4   1   5  1   
  5   5   6  1   
  6   5   7  1   
  7   5   9  1   
  8   7   8  ar  
  9   7  36  ar  
 10   9  10  1   
 11   9  11  1   
 12   9  12  1   
 13  12  13  1   
 14  12  14  1   
 15  12  15  1   
 16  15  16  1   
 17  15  20  1   
 18  16  17  1   
 19  16  18  1   
 20  16  19  1   
 21  20  21  1   
 22  20  22  1   
 23  20  23  1   
 24  23  24  1   
 25  23  25  1   
 26  23  26  1   
 27  25  34  1   
 28  26  27  1   
 29  26  28  1   
 30  26  30  1   
 31  28  29  1   
 32  30  31  1   
 33  30  32  1   
 34  30  34  1   
 35  32  33  1   
 36  34  35  1   
 37  34  51  1   
 38  37  38  2   
 39  37  43  1   
 40  38  39  1   
 41  38  40  1   
 42  40  41  2   
 43  41  42  1   
 44  41  51  1   
 45  42  43  1   
 46  42  47  2   
 47  43  44  2   
 48  44  45  1   
 49  44  46  1   
 50  47  48  1   
 51  48  49  1   
 52  48  50  1   
 53  48  51  1   
@<TRIPOS>SUBSTRUCTURE
  1 SAM  25 GROUP 4 A **** 0

# MOE 2022.02 (io_trps.svl 2020.11)
