@<TRIPOS>MOLECULE
2B9E.A
51 53 1 0 0 
SMALL
USER_CHARGES


@<TRIPOS>ATOM
  1 N       32.8040   -23.7790    15.1870 N.4   1 SAM  -0.8530 
  2 H1      31.9083   -23.8586    15.6468 H     1 SAM   0.4500 
  3 H2      32.7002   -23.2412    14.3384 H     1 SAM   0.4500 
  4 H3      33.4579   -23.3154    15.8015 H     1 SAM   0.4500 
  5 CA      33.3170   -25.1470    14.8520 C.3   1 SAM   0.3170 
  6 HA      34.2811   -25.0220    14.3591 H     1 SAM   0.0800 
  7 C       32.3790   -25.8710    13.8970 C.2   1 SAM   0.9060 
  8 O       32.7270   -26.8920    13.2770 O.co2 1 SAM  -0.9000 
  9 CB      33.5110   -25.9750    16.1120 C.3   1 SAM  -0.1600 
 10 HB1     33.9961   -26.9161    15.8529 H     1 SAM   0.0800 
 11 HB2     32.5392   -26.1789    16.5616 H     1 SAM   0.0800 
 12 CG      34.3770   -25.2220    17.1090 C.3   1 SAM  -0.1525 
 13 HG1     33.7918   -24.4040    17.5291 H     1 SAM   0.0800 
 14 HG2     35.2412   -24.8173    16.5822 H     1 SAM   0.0800 
 15 SD      34.9630   -26.2620    18.4600 S.3   1 SAM   0.9775 
 16 CE      33.4740   -26.2650    19.4950 C.3   1 SAM  -0.2325 
 17 HE1     32.7264   -26.9244    19.0541 H     1 SAM   0.0800 
 18 HE2     33.0737   -25.2532    19.5586 H     1 SAM   0.0800 
 19 HE3     33.7269   -26.6192    20.4944 H     1 SAM   0.0800 
 20 C5'     36.0170   -25.1210    19.3900 C.3   1 SAM  -0.1525 
 21 H5'1    36.2375   -25.5724    20.3573 H     1 SAM   0.0800 
 22 H5'2    35.4655   -24.1928    19.5395 H     1 SAM   0.0800 
 23 C4'     37.3450   -24.7840    18.7050 C.3   1 SAM   0.2000 
 24 H4'     37.0706   -24.4794    17.6950 H     1 SAM   0.0800 
 25 O4'     38.0190   -23.7860    19.4570 O.3   1 SAM  -0.5600 
 26 C3'     38.3350   -25.9560    18.6310 C.3   1 SAM   0.2000 
 27 H3'     37.9517   -26.8672    19.0902 H     1 SAM   0.0800 
 28 O3'     38.6080   -26.2670    17.2740 O.3   1 SAM  -0.6800 
 29 H3'     39.2603   -26.9713    17.2632 H     1 SAM   0.4000 
 30 C2'     39.5810   -25.4540    19.3420 C.3   1 SAM   0.2000 
 31 H2'     39.6807   -25.7873    20.3750 H     1 SAM   0.0800 
 32 O2'     40.7810   -25.9360    18.7620 O.3   1 SAM  -0.6800 
 33 H2'     40.7778   -25.6831    17.8359 H     1 SAM   0.4000 
 34 C1'     39.3960   -23.9520    19.1830 C.3   1 SAM   0.5691 
 35 H1'     39.7572   -23.6582    18.1975 H     1 SAM   0.0800 
 36 OXT     31.2390   -25.4400    13.7270 O.co2 1 SAM  -0.9000 
 37 N1      41.7290   -19.3170    19.5650 N.2   1 SAM  -0.6610 
 38 C2      41.0840   -19.8620    18.4690 C.2   1 SAM   0.6010 
 39 H2      41.0122   -19.3111    17.5429 H     1 SAM   0.0600 
 40 N3      40.5410   -21.1070    18.5800 N.2   1 SAM  -0.6610 
 41 C4      40.6170   -21.8260    19.7340 C.2   1 SAM   0.5000 
 42 C5      41.2770   -21.2990    20.8450 C.2   1 SAM   0.4500 
 43 C6      41.8360   -20.0320    20.7480 C.2   1 SAM   0.6110 
 44 N6      42.4870   -19.4890    21.7850 N.2   1 SAM  -0.2000 
 45 H62     42.8892   -18.5663    21.7016 H     1 SAM   0.4000 
 46 H61     42.5757   -20.0022    22.6503 H     1 SAM   0.4000 
 47 N7      41.2060   -22.2220    21.8400 N.2   1 SAM  -0.6960 
 48 C8      40.5240   -23.3070    21.3940 C.3   1 SAM   0.4551 
 49 H81     39.6321   -23.4603    22.0015 H     1 SAM   0.0800 
 50 H82     41.1577   -24.1922    21.4491 H     1 SAM   0.0800 
 51 N9      40.1640   -23.0670    20.0820 N.pl3 1 SAM  -0.7882 
@<TRIPOS>BOND
  1   1   2  1   
  2   1   3  1   
  3   1   4  1   
  4   1   5  1   
  5   5   6  1   
  6   5   7  1   
  7   5   9  1   
  8   7   8  ar  
  9   7  36  ar  
 10   9  10  1   
 11   9  11  1   
 12   9  12  1   
 13  12  13  1   
 14  12  14  1   
 15  12  15  1   
 16  15  16  1   
 17  15  20  1   
 18  16  17  1   
 19  16  18  1   
 20  16  19  1   
 21  20  21  1   
 22  20  22  1   
 23  20  23  1   
 24  23  24  1   
 25  23  25  1   
 26  23  26  1   
 27  25  34  1   
 28  26  27  1   
 29  26  28  1   
 30  26  30  1   
 31  28  29  1   
 32  30  31  1   
 33  30  32  1   
 34  30  34  1   
 35  32  33  1   
 36  34  35  1   
 37  34  51  1   
 38  37  38  2   
 39  37  43  1   
 40  38  39  1   
 41  38  40  1   
 42  40  41  2   
 43  41  42  1   
 44  41  51  1   
 45  42  43  1   
 46  42  47  2   
 47  43  44  2   
 48  44  45  1   
 49  44  46  1   
 50  47  48  1   
 51  48  49  1   
 52  48  50  1   
 53  48  51  1   
@<TRIPOS>SUBSTRUCTURE
  1 SAM  23 GROUP 4 A **** 0

# MOE 2022.02 (io_trps.svl 2020.11)
