# created with PyMOL 2.5.0
@<TRIPOS>MOLECULE
2B9E
27 29 1                 
SMALL
USER_CHARGES
@<TRIPOS>ATOM
1	   N	32.804	-23.779	15.187	N.3	1	SAM1201	0.000	
2	  CA	33.317	-25.147	14.852	C.3	1	SAM1201	0.000	
3	   C	32.379	-25.871	13.897	C.2	1	SAM1201	0.000	
4	   O	32.727	-26.892	13.277	O.co2	1	SAM1201	0.000	
5	  CB	33.511	-25.975	16.112	C.3	1	SAM1201	0.000	
6	  CG	34.377	-25.222	17.109	C.3	1	SAM1201	0.000	
7	  SD	34.963	-26.262	18.460	S.3	1	SAM1201	0.000	
8	  CE	33.474	-26.265	19.495	C.3	1	SAM1201	0.000	
9	 C5'	36.017	-25.121	19.390	C.3	1	SAM1201	0.000	
10	 C4'	37.345	-24.784	18.705	C.3	1	SAM1201	0.000	
11	 O4'	38.019	-23.786	19.457	O.3	1	SAM1201	0.000	
12	 C3'	38.335	-25.956	18.631	C.3	1	SAM1201	0.000	
13	 O3'	38.608	-26.267	17.274	O.3	1	SAM1201	0.000	
14	 C2'	39.581	-25.454	19.342	C.3	1	SAM1201	0.000	
15	 O2'	40.781	-25.936	18.762	O.3	1	SAM1201	0.000	
16	 C1'	39.396	-23.952	19.183	C.3	1	SAM1201	0.000	
17	 OXT	31.239	-25.440	13.727	O.co2	1	SAM1201	0.000	
18	  N1	41.729	-19.317	19.565	N.2	1	SAM1201	0.000	
19	  C2	41.084	-19.862	18.469	C.2	1	SAM1201	0.000	
20	  N3	40.541	-21.107	18.580	N.2	1	SAM1201	0.000	
21	  C4	40.617	-21.826	19.734	C.2	1	SAM1201	0.000	
22	  C5	41.277	-21.299	20.845	C.2	1	SAM1201	0.000	
23	  C6	41.836	-20.032	20.748	C.2	1	SAM1201	0.000	
24	  N6	42.487	-19.489	21.785	N.pl3	1	SAM1201	0.000	
25	  N7	41.206	-22.222	21.840	N.2	1	SAM1201	0.000	
26	  C8	40.524	-23.307	21.394	C.2	1	SAM1201	0.000	
27	  N9	40.164	-23.067	20.082	N.2	1	SAM1201	0.000	
@<TRIPOS>BOND
1 1 2 1
2 2 3 1
3 2 5 1
4 3 4 ar
5 3 17 ar
6 5 6 1
7 6 7 1
8 7 8 1
9 7 9 1
10 9 10 1
11 10 11 1
12 10 12 1
13 11 16 1
14 12 13 1
15 12 14 1
16 14 15 1
17 14 16 1
18 16 27 1
19 18 19 ar
20 18 23 ar
21 19 20 ar
22 20 21 ar
23 21 22 ar
24 21 27 ar
25 22 23 ar
26 22 25 ar
27 23 24 1
28 25 26 ar
29 26 27 ar
@<TRIPOS>SUBSTRUCTURE
1	SAM1201	1	GROUP	1 A	SAM
