# created with PyMOL 2.4.0
@<TRIPOS>MOLECULE
temp
50 52 1                 
SMALL
USER_CHARGES
@<TRIPOS>ATOM
1	   N	81.976	19.248	24.241	N.4	1	SAM1	0.000	
2	  CA	80.645	18.721	24.638	C.3	1	SAM1	0.000	
3	   C	79.549	19.545	23.944	C.2	1	SAM1	0.000	
4	   O	79.816	19.973	22.801	O.co2	1	SAM1	0.000	
5	  CB	80.504	18.746	26.166	C.3	1	SAM1	0.000	
6	  CG	81.590	17.912	26.848	C.3	1	SAM1	0.000	
7	  SD	81.319	17.667	28.619	S.3	1	SAM1	0.000	
8	  CE	81.617	19.312	29.244	C.3	1	SAM1	0.000	
9	 C5'	82.878	16.831	29.024	C.3	1	SAM1	0.000	
10	 C4'	83.014	15.458	28.389	C.3	1	SAM1	0.000	
11	 O4'	84.322	14.915	28.684	O.3	1	SAM1	0.000	
12	 C3'	82.007	14.407	28.874	C.3	1	SAM1	0.000	
13	 O3'	81.163	13.996	27.802	O.3	1	SAM1	0.000	
14	 C2'	82.884	13.261	29.404	C.3	1	SAM1	0.000	
15	 O2'	82.361	11.982	29.117	O.3	1	SAM1	0.000	
16	 C1'	84.200	13.514	28.678	C.3	1	SAM1	0.000	
17	 OXT	78.464	19.699	24.538	O.co2	1	SAM1	0.000	
18	  N1	88.165	10.230	28.177	N.2	1	SAM1	0.000	
19	  C2	87.221	10.637	27.318	C.2	1	SAM1	0.000	
20	  N3	86.222	11.497	27.507	N.2	1	SAM1	0.000	
21	  C4	86.236	11.990	28.758	C.2	1	SAM1	0.000	
22	  C5	87.147	11.674	29.749	C.2	1	SAM1	0.000	
23	  C6	88.161	10.747	29.429	C.2	1	SAM1	0.000	
24	  N6	89.094	10.341	30.288	N.pl3	1	SAM1	0.000	
25	  N7	86.853	12.373	30.912	N.2	1	SAM1	0.000	
26	  C8	85.790	13.079	30.610	C.2	1	SAM1	0.000	
27	  N9	85.364	12.902	29.315	N.2	1	SAM1	0.000	
28	  HA	80.541	17.683	24.321	 H	1	SAM1	0.000	
29	 HB1	79.528	18.344	26.437	 H	1	SAM1	0.000	
30	 HB2	80.581	19.777	26.511	 H	1	SAM1	0.000	
31	 HG1	82.546	18.417	26.713	 H	1	SAM1	0.000	
32	 HG2	81.625	16.934	26.367	 H	1	SAM1	0.000	
33	 HE1	80.741	19.934	29.062	 H	1	SAM1	0.000	
34	 HE2	82.480	19.743	28.736	 H	1	SAM1	0.000	
35	 HE3	81.813	19.264	30.315	 H	1	SAM1	0.000	
36	  H1	82.060	20.209	24.540	 H	1	SAM1	0.000	
37	  H2	82.072	19.198	23.237	 H	1	SAM1	0.000	
38	  H2	87.279	10.205	26.330	 H	1	SAM1	0.000	
39	  H3	82.701	18.695	24.677	 H	1	SAM1	0.000	
40	  H8	85.297	13.736	31.311	 H	1	SAM1	0.000	
41	 H1'	84.178	13.068	27.684	 H	1	SAM1	0.000	
42	 H2'	82.966	13.255	30.491	 H	1	SAM1	0.000	
43	 H2'	82.261	11.916	28.164	 H	1	SAM1	0.000	
44	 H3'	81.331	14.778	29.645	 H	1	SAM1	0.000	
45	 H3'	80.580	13.311	28.138	 H	1	SAM1	0.000	
46	 H4'	82.835	15.635	27.328	 H	1	SAM1	0.000	
47	 H61	89.102	10.700	31.232	 H	1	SAM1	0.000	
48	 H62	89.794	9.674	29.996	 H	1	SAM1	0.000	
49	H5'1	82.937	16.718	30.107	 H	1	SAM1	0.000	
50	H5'2	83.703	17.454	28.678	 H	1	SAM1	0.000	
@<TRIPOS>BOND
1 1 2 1
2 1 36 1
3 1 37 1
4 1 39 1
5 2 3 1
6 2 5 1
7 2 28 1
8 3 4 ar
9 3 17 ar
10 5 6 1
11 5 29 1
12 5 30 1
13 6 7 1
14 6 31 1
15 6 32 1
16 7 8 1
17 7 9 1
18 8 33 1
19 8 34 1
20 8 35 1
21 9 10 1
22 9 49 1
23 9 50 1
24 10 11 1
25 10 12 1
26 10 46 1
27 11 16 1
28 12 13 1
29 12 14 1
30 12 44 1
31 13 45 1
32 14 15 1
33 14 16 1
34 14 42 1
35 15 43 1
36 16 27 1
37 16 41 1
38 18 19 ar
39 18 23 ar
40 19 20 ar
41 19 38 1
42 20 21 ar
43 21 22 ar
44 21 27 ar
45 22 23 ar
46 22 25 ar
47 23 24 1
48 24 47 1
49 24 48 1
50 25 26 ar
51 26 27 ar
52 26 40 1
@<TRIPOS>SUBSTRUCTURE
1	SAM1	1	GROUP	1 A	SAM
