@<TRIPOS>MOLECULE
6W4H.A
51 53 1 0 0 
SMALL
USER_CHARGES


@<TRIPOS>ATOM
  1 N       81.9760    19.2480    24.2410 N.4   1 SAM  -0.8530 
  2 H1      82.0602    20.2092    24.5396 H     1 SAM   0.4500 
  3 H2      82.0722    19.1977    23.2368 H     1 SAM   0.4500 
  4 H3      82.7005    18.6954    24.6767 H     1 SAM   0.4500 
  5 CA      80.6450    18.7210    24.6380 C.3   1 SAM   0.3170 
  6 HA      80.5410    17.6832    24.3213 H     1 SAM   0.0800 
  7 C       79.5490    19.5450    23.9440 C.2   1 SAM   0.9060 
  8 O       79.8160    19.9730    22.8010 O.co2 1 SAM  -0.9000 
  9 CB      80.5040    18.7460    26.1660 C.3   1 SAM  -0.1600 
 10 HB1     79.5276    18.3444    26.4373 H     1 SAM   0.0800 
 11 HB2     80.5815    19.7770    26.5111 H     1 SAM   0.0800 
 12 CG      81.5900    17.9120    26.8480 C.3   1 SAM  -0.1525 
 13 HG1     82.5464    18.4173    26.7135 H     1 SAM   0.0800 
 14 HG2     81.6249    16.9343    26.3673 H     1 SAM   0.0800 
 15 SD      81.3190    17.6670    28.6190 S.3   1 SAM   0.9775 
 16 CE      81.6170    19.3120    29.2440 C.3   1 SAM  -0.2325 
 17 HE1     80.7405    19.9340    29.0624 H     1 SAM   0.0800 
 18 HE2     82.4798    19.7429    28.7361 H     1 SAM   0.0800 
 19 HE3     81.8127    19.2638    30.3152 H     1 SAM   0.0800 
 20 C5'     82.8780    16.8310    29.0240 C.3   1 SAM  -0.1525 
 21 H5'1    82.9372    16.7175    30.1065 H     1 SAM   0.0800 
 22 H5'2    83.7030    17.4539    28.6784 H     1 SAM   0.0800 
 23 C4'     83.0140    15.4580    28.3890 C.3   1 SAM   0.2000 
 24 H4'     82.8351    15.6348    27.3284 H     1 SAM   0.0800 
 25 O4'     84.3220    14.9150    28.6840 O.3   1 SAM  -0.5600 
 26 C3'     82.0070    14.4070    28.8740 C.3   1 SAM   0.2000 
 27 H3'     81.3314    14.7784    29.6445 H     1 SAM   0.0800 
 28 O3'     81.1630    13.9960    27.8020 O.3   1 SAM  -0.6800 
 29 H3'     80.5802    13.3110    28.1377 H     1 SAM   0.4000 
 30 C2'     82.8840    13.2610    29.4040 C.3   1 SAM   0.2000 
 31 H2'     82.9663    13.2555    30.4909 H     1 SAM   0.0800 
 32 O2'     82.3610    11.9820    29.1170 O.3   1 SAM  -0.6800 
 33 H2'     82.2612    11.9162    28.1645 H     1 SAM   0.4000 
 34 C1'     84.2000    13.5140    28.6780 C.3   1 SAM   0.5691 
 35 H1'     84.1784    13.0677    27.6838 H     1 SAM   0.0800 
 36 OXT     78.4640    19.6990    24.5380 O.co2 1 SAM  -0.9000 
 37 N1      88.1650    10.2300    28.1770 N.2   1 SAM  -0.6610 
 38 C2      87.2210    10.6370    27.3180 C.2   1 SAM   0.6010 
 39 H2      87.2785    10.2054    26.3297 H     1 SAM   0.0600 
 40 N3      86.2220    11.4970    27.5070 N.2   1 SAM  -0.6610 
 41 C4      86.2360    11.9900    28.7580 C.2   1 SAM   0.5000 
 42 C5      87.1470    11.6740    29.7490 C.2   1 SAM   0.4500 
 43 C6      88.1610    10.7470    29.4290 C.2   1 SAM   0.6110 
 44 N6      89.0940    10.3410    30.2880 N.2   1 SAM  -0.2000 
 45 H62     89.7936     9.6737    29.9956 H     1 SAM   0.4000 
 46 H61     89.1021    10.7003    31.2319 H     1 SAM   0.4000 
 47 N7      86.8530    12.3730    30.9120 N.2   1 SAM  -0.6960 
 48 C8      85.7900    13.0790    30.6100 C.3   1 SAM   0.4551 
 49 H81     86.0236    14.1337    30.7553 H     1 SAM   0.0800 
 50 H82     84.9816    12.7901    31.2817 H     1 SAM   0.0800 
 51 N9      85.3640    12.9020    29.3150 N.pl3 1 SAM  -0.7882 
@<TRIPOS>BOND
  1   1   2  1   
  2   1   3  1   
  3   1   4  1   
  4   1   5  1   
  5   5   6  1   
  6   5   7  1   
  7   5   9  1   
  8   7   8  ar  
  9   7  36  ar  
 10   9  10  1   
 11   9  11  1   
 12   9  12  1   
 13  12  13  1   
 14  12  14  1   
 15  12  15  1   
 16  15  16  1   
 17  15  20  1   
 18  16  17  1   
 19  16  18  1   
 20  16  19  1   
 21  20  21  1   
 22  20  22  1   
 23  20  23  1   
 24  23  24  1   
 25  23  25  1   
 26  23  26  1   
 27  25  34  1   
 28  26  27  1   
 29  26  28  1   
 30  26  30  1   
 31  28  29  1   
 32  30  31  1   
 33  30  32  1   
 34  30  34  1   
 35  32  33  1   
 36  34  35  1   
 37  34  51  1   
 38  37  38  2   
 39  37  43  1   
 40  38  39  1   
 41  38  40  1   
 42  40  41  2   
 43  41  42  1   
 44  41  51  1   
 45  42  43  1   
 46  42  47  2   
 47  43  44  2   
 48  44  45  1   
 49  44  46  1   
 50  47  48  1   
 51  48  49  1   
 52  48  50  1   
 53  48  51  1   
@<TRIPOS>SUBSTRUCTURE
  1 SAM  23 GROUP 4 A **** 0

# MOE 2022.02 (io_trps.svl 2020.11)
