# created with PyMOL 2.5.0
@<TRIPOS>MOLECULE
6W4H
27 29 1                 
SMALL
USER_CHARGES
@<TRIPOS>ATOM
1	   N	81.976	19.248	24.241	N.3	1	SAM7102	0.000	
2	  CA	80.645	18.721	24.638	C.3	1	SAM7102	0.000	
3	   C	79.549	19.545	23.944	C.2	1	SAM7102	0.000	
4	   O	79.816	19.973	22.801	O.co2	1	SAM7102	0.000	
5	  CB	80.504	18.746	26.166	C.3	1	SAM7102	0.000	
6	  CG	81.590	17.912	26.848	C.3	1	SAM7102	0.000	
7	  SD	81.319	17.667	28.619	S.3	1	SAM7102	0.000	
8	  CE	81.617	19.312	29.244	C.3	1	SAM7102	0.000	
9	 C5'	82.878	16.831	29.024	C.3	1	SAM7102	0.000	
10	 C4'	83.014	15.458	28.389	C.3	1	SAM7102	0.000	
11	 O4'	84.322	14.915	28.684	O.3	1	SAM7102	0.000	
12	 C3'	82.007	14.407	28.874	C.3	1	SAM7102	0.000	
13	 O3'	81.163	13.996	27.802	O.3	1	SAM7102	0.000	
14	 C2'	82.884	13.261	29.404	C.3	1	SAM7102	0.000	
15	 O2'	82.361	11.982	29.117	O.3	1	SAM7102	0.000	
16	 C1'	84.200	13.514	28.678	C.3	1	SAM7102	0.000	
17	 OXT	78.464	19.699	24.538	O.co2	1	SAM7102	0.000	
18	  N1	88.165	10.230	28.177	N.2	1	SAM7102	0.000	
19	  C2	87.221	10.637	27.318	C.2	1	SAM7102	0.000	
20	  N3	86.222	11.497	27.507	N.2	1	SAM7102	0.000	
21	  C4	86.236	11.990	28.758	C.2	1	SAM7102	0.000	
22	  C5	87.147	11.674	29.749	C.2	1	SAM7102	0.000	
23	  C6	88.161	10.747	29.429	C.2	1	SAM7102	0.000	
24	  N6	89.094	10.341	30.288	N.pl3	1	SAM7102	0.000	
25	  N7	86.853	12.373	30.912	N.2	1	SAM7102	0.000	
26	  C8	85.790	13.079	30.610	C.2	1	SAM7102	0.000	
27	  N9	85.364	12.902	29.315	N.2	1	SAM7102	0.000	
@<TRIPOS>BOND
1 1 2 1
2 2 3 1
3 2 5 1
4 3 4 ar
5 3 17 ar
6 5 6 1
7 6 7 1
8 7 8 1
9 7 9 1
10 9 10 1
11 10 11 1
12 10 12 1
13 11 16 1
14 12 13 1
15 12 14 1
16 14 15 1
17 14 16 1
18 16 27 1
19 18 19 ar
20 18 23 ar
21 19 20 ar
22 20 21 ar
23 21 22 ar
24 21 27 ar
25 22 23 ar
26 22 25 ar
27 23 24 1
28 25 26 ar
29 26 27 ar
@<TRIPOS>SUBSTRUCTURE
1	SAM7102	1	GROUP	1 A	SAM
