# created with PyMOL 2.5.0
@<TRIPOS>MOLECULE
4IJ8
27 29 1                 
SMALL
USER_CHARGES
@<TRIPOS>ATOM
1	   N	-34.535	31.191	3.041	N.3	1	SAM501	0.000	
2	  CA	-33.826	30.132	2.301	C.3	1	SAM501	0.000	
3	   C	-33.176	30.659	1.038	C.2	1	SAM501	0.000	
4	   O	-32.402	29.902	0.395	O.co2	1	SAM501	0.000	
5	  CB	-34.766	28.978	1.962	C.3	1	SAM501	0.000	
6	  CG	-34.843	27.922	3.080	C.3	1	SAM501	0.000	
7	  SD	-33.352	27.154	3.316	S.3	1	SAM501	0.000	
8	  CE	-33.711	25.493	3.289	C.3	1	SAM501	0.000	
9	 C5'	-32.575	27.464	4.831	C.3	1	SAM501	0.000	
10	 C4'	-32.120	28.891	5.273	C.3	1	SAM501	0.000	
11	 O4'	-33.215	29.791	5.399	O.3	1	SAM501	0.000	
12	 C3'	-31.482	29.009	6.654	C.3	1	SAM501	0.000	
13	 O3'	-30.116	28.635	6.731	O.3	1	SAM501	0.000	
14	 C2'	-31.655	30.474	6.997	C.3	1	SAM501	0.000	
15	 O2'	-30.749	31.324	6.275	O.3	1	SAM501	0.000	
16	 C1'	-33.043	30.715	6.463	C.3	1	SAM501	0.000	
17	 OXT	-33.424	31.830	0.646	O.co2	1	SAM501	0.000	
18	  N1	-35.682	32.554	10.539	N.2	1	SAM501	0.000	
19	  C2	-34.620	33.086	9.874	C.2	1	SAM501	0.000	
20	  N3	-34.046	32.461	8.821	N.2	1	SAM501	0.000	
21	  C4	-34.499	31.281	8.416	C.2	1	SAM501	0.000	
22	  C5	-35.630	30.641	9.082	C.2	1	SAM501	0.000	
23	  C6	-36.209	31.348	10.203	C.2	1	SAM501	0.000	
24	  N6	-37.235	30.811	10.866	N.pl3	1	SAM501	0.000	
25	  N7	-35.880	29.469	8.456	N.2	1	SAM501	0.000	
26	  C8	-34.953	29.352	7.468	C.2	1	SAM501	0.000	
27	  N9	-34.133	30.443	7.443	N.2	1	SAM501	0.000	
@<TRIPOS>BOND
1 1 2 1
2 2 3 1
3 2 5 1
4 3 4 ar
5 3 17 ar
6 5 6 1
7 6 7 1
8 7 8 1
9 7 9 1
10 9 10 1
11 10 11 1
12 10 12 1
13 11 16 1
14 12 13 1
15 12 14 1
16 14 15 1
17 14 16 1
18 16 27 1
19 18 19 ar
20 18 23 ar
21 19 20 ar
22 20 21 ar
23 21 22 ar
24 21 27 ar
25 22 23 ar
26 22 25 ar
27 23 24 1
28 25 26 ar
29 26 27 ar
@<TRIPOS>SUBSTRUCTURE
1	SAM501	1	GROUP	1 B	SAM
