# created with PyMOL 2.4.0
@<TRIPOS>MOLECULE
temp
50 52 1                 
SMALL
USER_CHARGES
@<TRIPOS>ATOM
1	   N	-34.535	31.191	3.041	N.4	1	SAM1	0.000	
2	  CA	-33.826	30.132	2.301	C.3	1	SAM1	0.000	
3	   C	-33.176	30.659	1.038	C.2	1	SAM1	0.000	
4	   O	-32.402	29.902	0.395	O.co2	1	SAM1	0.000	
5	  CB	-34.766	28.978	1.962	C.3	1	SAM1	0.000	
6	  CG	-34.843	27.922	3.080	C.3	1	SAM1	0.000	
7	  SD	-33.352	27.154	3.316	S.3	1	SAM1	0.000	
8	  CE	-33.711	25.493	3.289	C.3	1	SAM1	0.000	
9	 C5'	-32.575	27.464	4.831	C.3	1	SAM1	0.000	
10	 C4'	-32.120	28.891	5.273	C.3	1	SAM1	0.000	
11	 O4'	-33.215	29.791	5.399	O.3	1	SAM1	0.000	
12	 C3'	-31.482	29.009	6.654	C.3	1	SAM1	0.000	
13	 O3'	-30.116	28.635	6.731	O.3	1	SAM1	0.000	
14	 C2'	-31.655	30.474	6.997	C.3	1	SAM1	0.000	
15	 O2'	-30.749	31.324	6.275	O.3	1	SAM1	0.000	
16	 C1'	-33.043	30.715	6.463	C.3	1	SAM1	0.000	
17	 OXT	-33.424	31.830	0.646	O.co2	1	SAM1	0.000	
18	  N1	-35.682	32.554	10.539	N.2	1	SAM1	0.000	
19	  C2	-34.620	33.086	9.874	C.2	1	SAM1	0.000	
20	  N3	-34.046	32.461	8.821	N.2	1	SAM1	0.000	
21	  C4	-34.499	31.281	8.416	C.2	1	SAM1	0.000	
22	  C5	-35.630	30.641	9.082	C.2	1	SAM1	0.000	
23	  C6	-36.209	31.348	10.203	C.2	1	SAM1	0.000	
24	  N6	-37.235	30.811	10.866	N.pl3	1	SAM1	0.000	
25	  N7	-35.880	29.469	8.456	N.2	1	SAM1	0.000	
26	  C8	-34.953	29.352	7.468	C.2	1	SAM1	0.000	
27	  N9	-34.133	30.443	7.443	N.2	1	SAM1	0.000	
28	  HA	-33.036	29.765	2.956	 H	1	SAM1	0.000	
29	 HB1	-34.411	28.496	1.051	 H	1	SAM1	0.000	
30	 HB2	-35.765	29.381	1.794	 H	1	SAM1	0.000	
31	 HG1	-35.588	27.173	2.809	 H	1	SAM1	0.000	
32	 HG2	-35.140	28.410	4.008	 H	1	SAM1	0.000	
33	 HE1	-34.205	25.243	2.350	 H	1	SAM1	0.000	
34	 HE2	-34.371	25.250	4.122	 H	1	SAM1	0.000	
35	 HE3	-32.788	24.920	3.378	 H	1	SAM1	0.000	
36	  H1	-35.280	31.561	2.468	 H	1	SAM1	0.000	
37	  H2	-33.888	31.931	3.272	 H	1	SAM1	0.000	
38	  H2	-34.223	34.037	10.198	 H	1	SAM1	0.000	
39	  H3	-34.923	30.806	3.890	 H	1	SAM1	0.000	
40	  H8	-34.876	28.511	6.795	 H	1	SAM1	0.000	
41	 H1'	-33.116	31.767	6.185	 H	1	SAM1	0.000	
42	 H2'	-31.483	30.684	8.053	 H	1	SAM1	0.000	
43	 H2'	-29.857	31.096	6.548	 H	1	SAM1	0.000	
44	 H3'	-31.959	28.315	7.346	 H	1	SAM1	0.000	
45	 H3'	-29.835	28.749	7.642	 H	1	SAM1	0.000	
46	 H4'	-31.405	29.118	4.482	 H	1	SAM1	0.000	
47	 H61	-37.604	29.914	10.584	 H	1	SAM1	0.000	
48	 H62	-37.642	31.301	11.649	 H	1	SAM1	0.000	
49	H5'1	-31.678	26.845	4.841	 H	1	SAM1	0.000	
50	H5'2	-33.265	27.116	5.600	 H	1	SAM1	0.000	
@<TRIPOS>BOND
1 1 2 1
2 1 36 1
3 1 37 1
4 1 39 1
5 2 3 1
6 2 5 1
7 2 28 1
8 3 4 ar
9 3 17 ar
10 5 6 1
11 5 29 1
12 5 30 1
13 6 7 1
14 6 31 1
15 6 32 1
16 7 8 1
17 7 9 1
18 8 33 1
19 8 34 1
20 8 35 1
21 9 10 1
22 9 49 1
23 9 50 1
24 10 11 1
25 10 12 1
26 10 46 1
27 11 16 1
28 12 13 1
29 12 14 1
30 12 44 1
31 13 45 1
32 14 15 1
33 14 16 1
34 14 42 1
35 15 43 1
36 16 27 1
37 16 41 1
38 18 19 ar
39 18 23 ar
40 19 20 ar
41 19 38 1
42 20 21 ar
43 21 22 ar
44 21 27 ar
45 22 23 ar
46 22 25 ar
47 23 24 1
48 24 47 1
49 24 48 1
50 25 26 ar
51 26 27 ar
52 26 40 1
@<TRIPOS>SUBSTRUCTURE
1	SAM1	1	GROUP	1 B	SAM
