# created with PyMOL 2.5.0
@<TRIPOS>MOLECULE
4IJ8
27 29 1                 
SMALL
USER_CHARGES
@<TRIPOS>ATOM
1	   N	-22.237	33.194	11.936	N.3	1	SAM501	0.000	
2	  CA	-21.565	32.009	11.419	C.3	1	SAM501	0.000	
3	   C	-21.802	30.843	12.338	C.2	1	SAM501	0.000	
4	   O	-22.351	31.010	13.476	O.co2	1	SAM501	0.000	
5	  CB	-20.067	32.262	11.226	C.3	1	SAM501	0.000	
6	  CG	-19.736	32.828	9.816	C.3	1	SAM501	0.000	
7	  SD	-20.228	31.821	8.530	S.3	1	SAM501	0.000	
8	  CE	-18.880	31.657	7.523	C.3	1	SAM501	0.000	
9	 C5'	-21.494	32.406	7.508	C.3	1	SAM501	0.000	
10	 C4'	-22.896	32.622	8.100	C.3	1	SAM501	0.000	
11	 O4'	-22.863	33.688	9.084	O.3	1	SAM501	0.000	
12	 C3'	-23.929	33.136	7.106	C.3	1	SAM501	0.000	
13	 O3'	-24.492	32.181	6.182	O.3	1	SAM501	0.000	
14	 C2'	-24.937	33.838	8.002	C.3	1	SAM501	0.000	
15	 O2'	-25.856	32.957	8.699	O.3	1	SAM501	0.000	
16	 C1'	-24.030	34.489	9.016	C.3	1	SAM501	0.000	
17	 OXT	-21.481	29.720	11.929	O.co2	1	SAM501	0.000	
18	  N1	-25.394	39.448	8.761	N.2	1	SAM501	0.000	
19	  C2	-26.141	38.400	9.107	C.2	1	SAM501	0.000	
20	  N3	-25.653	37.150	9.107	N.2	1	SAM501	0.000	
21	  C4	-24.353	36.938	8.786	C.2	1	SAM501	0.000	
22	  C5	-23.515	38.044	8.411	C.2	1	SAM501	0.000	
23	  C6	-24.101	39.335	8.387	C.2	1	SAM501	0.000	
24	  N6	-23.379	40.441	8.037	N.pl3	1	SAM501	0.000	
25	  N7	-22.287	37.554	8.109	N.2	1	SAM501	0.000	
26	  C8	-22.369	36.230	8.283	C.2	1	SAM501	0.000	
27	  N9	-23.608	35.865	8.681	N.2	1	SAM501	0.000	
@<TRIPOS>BOND
1 1 2 1
2 2 3 1
3 2 5 1
4 3 4 ar
5 3 17 ar
6 5 6 1
7 6 7 1
8 7 8 1
9 7 9 1
10 9 10 1
11 10 11 1
12 10 12 1
13 11 16 1
14 12 13 1
15 12 14 1
16 14 15 1
17 14 16 1
18 16 27 1
19 18 19 ar
20 18 23 ar
21 19 20 ar
22 20 21 ar
23 21 22 ar
24 21 27 ar
25 22 23 ar
26 22 25 ar
27 23 24 1
28 25 26 ar
29 26 27 ar
@<TRIPOS>SUBSTRUCTURE
1	SAM501	1	GROUP	1 A	SAM
