@<TRIPOS>MOLECULE
4IJ8.A
51 53 1 0 0 
SMALL
USER_CHARGES


@<TRIPOS>ATOM
  1 N      -22.2370    33.1940    11.9360 N.4   1 SAM  -0.8530 
  2 H1     -21.8595    33.4260    12.8436 H     1 SAM   0.4500 
  3 H2     -23.2266    33.0102    12.0199 H     1 SAM   0.4500 
  4 H3     -22.0907    33.9672    11.3029 H     1 SAM   0.4500 
  5 CA     -21.5650    32.0090    11.4190 C.3   1 SAM   0.3170 
  6 HA     -21.9835    31.7727    10.4407 H     1 SAM   0.0800 
  7 C      -21.8020    30.8430    12.3380 C.2   1 SAM   0.9060 
  8 O      -22.3510    31.0100    13.4760 O.co2 1 SAM  -0.9000 
  9 CB     -20.0670    32.2620    11.2260 C.3   1 SAM  -0.1600 
 10 HB1    -19.5335    31.3209    11.3591 H     1 SAM   0.0800 
 11 HB2    -19.7337    32.9780    11.9773 H     1 SAM   0.0800 
 12 CG     -19.7360    32.8280     9.8160 C.3   1 SAM  -0.1525 
 13 HG1    -18.6572    32.9684     9.7478 H     1 SAM   0.0800 
 14 HG2    -20.2353    33.7908     9.7075 H     1 SAM   0.0800 
 15 SD     -20.2280    31.8210     8.5300 S.3   1 SAM   0.9775 
 16 CE     -18.8800    31.6570     7.5230 C.3   1 SAM  -0.2325 
 17 HE1    -18.0348    31.2886     8.1044 H     1 SAM   0.0800 
 18 HE2    -18.6291    32.6258     7.0911 H     1 SAM   0.0800 
 19 HE3    -19.1069    30.9509     6.7242 H     1 SAM   0.0800 
 20 C5'    -21.4940    32.4060     7.5080 C.3   1 SAM  -0.1525 
 21 H5'1   -21.5997    31.6919     6.6913 H     1 SAM   0.0800 
 22 H5'2   -21.1646    33.3661     7.1107 H     1 SAM   0.0800 
 23 C4'    -22.8960    32.6220     8.1000 C.3   1 SAM   0.2000 
 24 H4'    -23.1672    31.6371     8.4803 H     1 SAM   0.0800 
 25 O4'    -22.8630    33.6880     9.0840 O.3   1 SAM  -0.5600 
 26 C3'    -23.9290    33.1360     7.1060 C.3   1 SAM   0.2000 
 27 H3'    -23.4698    33.7946     6.3688 H     1 SAM   0.0800 
 28 O3'    -24.4920    32.1810     6.1820 O.3   1 SAM  -0.6800 
 29 H3'    -25.1014    32.6542     5.6108 H     1 SAM   0.4000 
 30 C2'    -24.9370    33.8380     8.0020 C.3   1 SAM   0.2000 
 31 H2'    -25.5866    34.4937     7.4223 H     1 SAM   0.0800 
 32 O2'    -25.8560    32.9570     8.6990 O.3   1 SAM  -0.6800 
 33 H2'    -26.3658    32.4860     8.0358 H     1 SAM   0.4000 
 34 C1'    -24.0300    34.4890     9.0160 C.3   1 SAM   0.5691 
 35 H1'    -24.5872    34.5611     9.9500 H     1 SAM   0.0800 
 36 OXT    -21.4810    29.7200    11.9290 O.co2 1 SAM  -0.9000 
 37 N1     -25.3940    39.4480     8.7610 N.2   1 SAM  -0.6610 
 38 C2     -26.1410    38.4000     9.1070 C.2   1 SAM   0.6010 
 39 H2     -27.1691    38.5615     9.3958 H     1 SAM   0.0600 
 40 N3     -25.6530    37.1500     9.1070 N.2   1 SAM  -0.6610 
 41 C4     -24.3530    36.9380     8.7860 C.2   1 SAM   0.5000 
 42 C5     -23.5150    38.0440     8.4110 C.2   1 SAM   0.4500 
 43 C6     -24.1010    39.3350     8.3870 C.2   1 SAM   0.6110 
 44 N6     -23.3790    40.4410     8.0370 N.2   1 SAM  -0.2000 
 45 H62    -23.8198    41.3497     8.0277 H     1 SAM   0.4000 
 46 H61    -22.4045    40.3498     7.7876 H     1 SAM   0.4000 
 47 N7     -22.2870    37.5540     8.1090 N.2   1 SAM  -0.6960 
 48 C8     -22.3690    36.2300     8.2830 C.3   1 SAM   0.4551 
 49 H81    -21.6479    35.9258     9.0416 H     1 SAM   0.0800 
 50 H82    -22.1372    35.7326     7.3412 H     1 SAM   0.0800 
 51 N9     -23.6080    35.8650     8.6810 N.pl3 1 SAM  -0.7882 
@<TRIPOS>BOND
  1   1   2  1   
  2   1   3  1   
  3   1   4  1   
  4   1   5  1   
  5   5   6  1   
  6   5   7  1   
  7   5   9  1   
  8   7   8  ar  
  9   7  36  ar  
 10   9  10  1   
 11   9  11  1   
 12   9  12  1   
 13  12  13  1   
 14  12  14  1   
 15  12  15  1   
 16  15  16  1   
 17  15  20  1   
 18  16  17  1   
 19  16  18  1   
 20  16  19  1   
 21  20  21  1   
 22  20  22  1   
 23  20  23  1   
 24  23  24  1   
 25  23  25  1   
 26  23  26  1   
 27  25  34  1   
 28  26  27  1   
 29  26  28  1   
 30  26  30  1   
 31  28  29  1   
 32  30  31  1   
 33  30  32  1   
 34  30  34  1   
 35  32  33  1   
 36  34  35  1   
 37  34  51  1   
 38  37  38  2   
 39  37  43  1   
 40  38  39  1   
 41  38  40  1   
 42  40  41  2   
 43  41  42  1   
 44  41  51  1   
 45  42  43  1   
 46  42  47  2   
 47  43  44  2   
 48  44  45  1   
 49  44  46  1   
 50  47  48  1   
 51  48  49  1   
 52  48  50  1   
 53  48  51  1   
@<TRIPOS>SUBSTRUCTURE
  1 SAM  25 GROUP 4 A **** 0

# MOE 2022.02 (io_trps.svl 2020.11)
