# created with PyMOL 2.4.0
@<TRIPOS>MOLECULE
temp
50 52 1                 
SMALL
USER_CHARGES
@<TRIPOS>ATOM
1	   N	-22.237	33.194	11.936	N.4	1	SAM1	0.000	
2	  CA	-21.565	32.009	11.419	C.3	1	SAM1	0.000	
3	   C	-21.802	30.843	12.338	C.2	1	SAM1	0.000	
4	   O	-22.351	31.010	13.476	O.co2	1	SAM1	0.000	
5	  CB	-20.067	32.262	11.226	C.3	1	SAM1	0.000	
6	  CG	-19.736	32.828	9.816	C.3	1	SAM1	0.000	
7	  SD	-20.228	31.821	8.530	S.3	1	SAM1	0.000	
8	  CE	-18.880	31.657	7.523	C.3	1	SAM1	0.000	
9	 C5'	-21.494	32.406	7.508	C.3	1	SAM1	0.000	
10	 C4'	-22.896	32.622	8.100	C.3	1	SAM1	0.000	
11	 O4'	-22.863	33.688	9.084	O.3	1	SAM1	0.000	
12	 C3'	-23.929	33.136	7.106	C.3	1	SAM1	0.000	
13	 O3'	-24.492	32.181	6.182	O.3	1	SAM1	0.000	
14	 C2'	-24.937	33.838	8.002	C.3	1	SAM1	0.000	
15	 O2'	-25.856	32.957	8.699	O.3	1	SAM1	0.000	
16	 C1'	-24.030	34.489	9.016	C.3	1	SAM1	0.000	
17	 OXT	-21.481	29.720	11.929	O.co2	1	SAM1	0.000	
18	  N1	-25.394	39.448	8.761	N.2	1	SAM1	0.000	
19	  C2	-26.141	38.400	9.107	C.2	1	SAM1	0.000	
20	  N3	-25.653	37.150	9.107	N.2	1	SAM1	0.000	
21	  C4	-24.353	36.938	8.786	C.2	1	SAM1	0.000	
22	  C5	-23.515	38.044	8.411	C.2	1	SAM1	0.000	
23	  C6	-24.101	39.335	8.387	C.2	1	SAM1	0.000	
24	  N6	-23.379	40.441	8.037	N.pl3	1	SAM1	0.000	
25	  N7	-22.287	37.554	8.109	N.2	1	SAM1	0.000	
26	  C8	-22.369	36.230	8.283	C.2	1	SAM1	0.000	
27	  N9	-23.608	35.865	8.681	N.2	1	SAM1	0.000	
28	  HA	-21.983	31.773	10.441	 H	1	SAM1	0.000	
29	 HB1	-19.534	31.321	11.359	 H	1	SAM1	0.000	
30	 HB2	-19.734	32.978	11.977	 H	1	SAM1	0.000	
31	 HG1	-18.657	32.968	9.748	 H	1	SAM1	0.000	
32	 HG2	-20.235	33.791	9.708	 H	1	SAM1	0.000	
33	 HE1	-18.035	31.289	8.104	 H	1	SAM1	0.000	
34	 HE2	-18.629	32.626	7.091	 H	1	SAM1	0.000	
35	 HE3	-19.107	30.951	6.724	 H	1	SAM1	0.000	
36	  H1	-21.860	33.426	12.844	 H	1	SAM1	0.000	
37	  H2	-23.227	33.010	12.020	 H	1	SAM1	0.000	
38	  H2	-27.169	38.562	9.396	 H	1	SAM1	0.000	
39	  H3	-22.091	33.967	11.303	 H	1	SAM1	0.000	
40	  H8	-21.551	35.542	8.126	 H	1	SAM1	0.000	
41	 H1'	-24.587	34.561	9.950	 H	1	SAM1	0.000	
42	 H2'	-25.587	34.494	7.422	 H	1	SAM1	0.000	
43	 H2'	-26.366	32.486	8.036	 H	1	SAM1	0.000	
44	 H3'	-23.470	33.795	6.369	 H	1	SAM1	0.000	
45	 H3'	-25.101	32.654	5.611	 H	1	SAM1	0.000	
46	 H4'	-23.167	31.637	8.480	 H	1	SAM1	0.000	
47	 H61	-22.404	40.350	7.788	 H	1	SAM1	0.000	
48	 H62	-23.820	41.350	8.028	 H	1	SAM1	0.000	
49	H5'1	-21.600	31.692	6.691	 H	1	SAM1	0.000	
50	H5'2	-21.165	33.366	7.111	 H	1	SAM1	0.000	
@<TRIPOS>BOND
1 1 2 1
2 1 36 1
3 1 37 1
4 1 39 1
5 2 3 1
6 2 5 1
7 2 28 1
8 3 4 ar
9 3 17 ar
10 5 6 1
11 5 29 1
12 5 30 1
13 6 7 1
14 6 31 1
15 6 32 1
16 7 8 1
17 7 9 1
18 8 33 1
19 8 34 1
20 8 35 1
21 9 10 1
22 9 49 1
23 9 50 1
24 10 11 1
25 10 12 1
26 10 46 1
27 11 16 1
28 12 13 1
29 12 14 1
30 12 44 1
31 13 45 1
32 14 15 1
33 14 16 1
34 14 42 1
35 15 43 1
36 16 27 1
37 16 41 1
38 18 19 ar
39 18 23 ar
40 19 20 ar
41 19 38 1
42 20 21 ar
43 21 22 ar
44 21 27 ar
45 22 23 ar
46 22 25 ar
47 23 24 1
48 24 47 1
49 24 48 1
50 25 26 ar
51 26 27 ar
52 26 40 1
@<TRIPOS>SUBSTRUCTURE
1	SAM1	1	GROUP	1 A	SAM
