@<TRIPOS>MOLECULE
4IJ8.B
51 53 1 0 0 
SMALL
USER_CHARGES


@<TRIPOS>ATOM
  1 N      -34.5350    31.1910     3.0410 N.4   1 SAM  -0.8530 
  2 H1     -35.2796    31.5614     2.4679 H     1 SAM   0.4500 
  3 H2     -33.8879    31.9313     3.2720 H     1 SAM   0.4500 
  4 H3     -34.9234    30.8061     3.8902 H     1 SAM   0.4500 
  5 CA     -33.8260    30.1320     2.3010 C.3   1 SAM   0.3170 
  6 HA     -33.0359    29.7647     2.9559 H     1 SAM   0.0800 
  7 C      -33.1760    30.6590     1.0380 C.2   1 SAM   0.9060 
  8 O      -32.4020    29.9020     0.3950 O.co2 1 SAM  -0.9000 
  9 CB     -34.7660    28.9780     1.9620 C.3   1 SAM  -0.1600 
 10 HB1    -34.4107    28.4956     1.0514 H     1 SAM   0.0800 
 11 HB2    -35.7649    29.3805     1.7940 H     1 SAM   0.0800 
 12 CG     -34.8430    27.9220     3.0800 C.3   1 SAM  -0.1525 
 13 HG1    -35.5875    27.1734     2.8089 H     1 SAM   0.0800 
 14 HG2    -35.1401    28.4104     4.0080 H     1 SAM   0.0800 
 15 SD     -33.3520    27.1540     3.3160 S.3   1 SAM   0.9775 
 16 CE     -33.7110    25.4930     3.2890 C.3   1 SAM  -0.2325 
 17 HE1    -34.2047    25.2432     2.3499 H     1 SAM   0.0800 
 18 HE2    -34.3707    25.2503     4.1220 H     1 SAM   0.0800 
 19 HE3    -32.7879    24.9203     3.3778 H     1 SAM   0.0800 
 20 C5'    -32.5750    27.4640     4.8310 C.3   1 SAM  -0.1525 
 21 H5'1   -31.6777    26.8452     4.8413 H     1 SAM   0.0800 
 22 H5'2   -33.2649    27.1164     5.5999 H     1 SAM   0.0800 
 23 C4'    -32.1200    28.8910     5.2730 C.3   1 SAM   0.2000 
 24 H4'    -31.4048    29.1180     4.4823 H     1 SAM   0.0800 
 25 O4'    -33.2150    29.7910     5.3990 O.3   1 SAM  -0.5600 
 26 C3'    -31.4820    29.0090     6.6540 C.3   1 SAM   0.2000 
 27 H3'    -31.9593    28.3150     7.3458 H     1 SAM   0.0800 
 28 O3'    -30.1160    28.6350     6.7310 O.3   1 SAM  -0.6800 
 29 H3'    -29.8348    28.7486     7.6419 H     1 SAM   0.4000 
 30 C2'    -31.6550    30.4740     6.9970 C.3   1 SAM   0.2000 
 31 H2'    -31.4830    30.6842     8.0526 H     1 SAM   0.0800 
 32 O2'    -30.7490    31.3240     6.2750 O.3   1 SAM  -0.6800 
 33 H2'    -29.8573    31.0959     6.5478 H     1 SAM   0.4000 
 34 C1'    -33.0430    30.7150     6.4630 C.3   1 SAM   0.5691 
 35 H1'    -33.1160    31.7665     6.1853 H     1 SAM   0.0800 
 36 OXT    -33.4240    31.8300     0.6460 O.co2 1 SAM  -0.9000 
 37 N1     -35.6820    32.5540    10.5390 N.2   1 SAM  -0.6610 
 38 C2     -34.6200    33.0860     9.8740 C.2   1 SAM   0.6010 
 39 H2     -34.2234    34.0370    10.1975 H     1 SAM   0.0600 
 40 N3     -34.0460    32.4610     8.8210 N.2   1 SAM  -0.6610 
 41 C4     -34.4990    31.2810     8.4160 C.2   1 SAM   0.5000 
 42 C5     -35.6300    30.6410     9.0820 C.2   1 SAM   0.4500 
 43 C6     -36.2090    31.3480    10.2030 C.2   1 SAM   0.6110 
 44 N6     -37.2350    30.8110    10.8660 N.2   1 SAM  -0.2000 
 45 H62    -37.6422    31.3014    11.6494 H     1 SAM   0.4000 
 46 H61    -37.6043    29.9141    10.5844 H     1 SAM   0.4000 
 47 N7     -35.8800    29.4690     8.4560 N.2   1 SAM  -0.6960 
 48 C8     -34.9530    29.3520     7.4680 C.3   1 SAM   0.4551 
 49 H81    -35.4623    29.2653     6.5082 H     1 SAM   0.0800 
 50 H82    -34.3541    28.4584     7.6435 H     1 SAM   0.0800 
 51 N9     -34.1330    30.4430     7.4430 N.pl3 1 SAM  -0.7882 
@<TRIPOS>BOND
  1   1   2  1   
  2   1   3  1   
  3   1   4  1   
  4   1   5  1   
  5   5   6  1   
  6   5   7  1   
  7   5   9  1   
  8   7   8  ar  
  9   7  36  ar  
 10   9  10  1   
 11   9  11  1   
 12   9  12  1   
 13  12  13  1   
 14  12  14  1   
 15  12  15  1   
 16  15  16  1   
 17  15  20  1   
 18  16  17  1   
 19  16  18  1   
 20  16  19  1   
 21  20  21  1   
 22  20  22  1   
 23  20  23  1   
 24  23  24  1   
 25  23  25  1   
 26  23  26  1   
 27  25  34  1   
 28  26  27  1   
 29  26  28  1   
 30  26  30  1   
 31  28  29  1   
 32  30  31  1   
 33  30  32  1   
 34  30  34  1   
 35  32  33  1   
 36  34  35  1   
 37  34  51  1   
 38  37  38  2   
 39  37  43  1   
 40  38  39  1   
 41  38  40  1   
 42  40  41  2   
 43  41  42  1   
 44  41  51  1   
 45  42  43  1   
 46  42  47  2   
 47  43  44  2   
 48  44  45  1   
 49  44  46  1   
 50  47  48  1   
 51  48  49  1   
 52  48  50  1   
 53  48  51  1   
@<TRIPOS>SUBSTRUCTURE
  1 SAM  25 GROUP 4 B **** 0

# MOE 2022.02 (io_trps.svl 2020.11)
