@<TRIPOS>MOLECULE
6CEN
5 4 1 0 0 
SMALL
USER_CHARGES


@<TRIPOS>ATOM
  1 N       30.1870    14.7350    36.9040 N.4   1 <1>  -0.7488 
  2 H4      30.3734    14.2099    36.0616 H     1 <1>   0.4372 
  3 H1      30.0401    15.7064    36.6696 H     1 <1>   0.4372 
  4 H2      29.3601    14.3683    37.3533 H     1 <1>   0.4372 
  5 H3      30.9744    14.6554    37.5315 H     1 <1>   0.4372 
@<TRIPOS>BOND
  1   1   2  1   
  2   1   3  1   
  3   1   4  1   
  4   1   5  1   
@<TRIPOS>SUBSTRUCTURE
  1 ****   1 GROUP 4 **** **** 0

# MOE 2022.02 (io_trps.svl 2020.11)
