# created with PyMOL 2.4.0
@<TRIPOS>MOLECULE
temp
50 52 1                 
SMALL
USER_CHARGES
@<TRIPOS>ATOM
1	   N	25.352	28.607	48.371	N.4	1	SAM1	0.000	
2	  CA	26.152	29.319	47.358	C.3	1	SAM1	0.000	
3	   C	25.973	30.819	47.523	C.2	1	SAM1	0.000	
4	   O	26.390	31.617	46.627	O.co2	1	SAM1	0.000	
5	  CB	25.792	28.809	45.955	C.3	1	SAM1	0.000	
6	  CG	26.577	27.573	45.532	C.3	1	SAM1	0.000	
7	  SD	28.242	27.798	45.335	S.3	1	SAM1	0.000	
8	  CE	28.596	27.205	43.839	C.3	1	SAM1	0.000	
9	 C5'	29.017	26.682	46.329	C.3	1	SAM1	0.000	
10	 C4'	29.237	27.019	47.803	C.3	1	SAM1	0.000	
11	 O4'	28.027	26.924	48.533	O.3	1	SAM1	0.000	
12	 C3'	30.198	26.049	48.479	C.3	1	SAM1	0.000	
13	 O3'	31.563	26.463	48.298	O.3	1	SAM1	0.000	
14	 C2'	29.726	26.087	49.911	C.3	1	SAM1	0.000	
15	 O2'	30.277	27.240	50.554	O.3	1	SAM1	0.000	
16	 C1'	28.223	26.255	49.785	C.3	1	SAM1	0.000	
17	 OXT	25.397	31.206	48.566	O.co2	1	SAM1	0.000	
18	  N1	26.521	22.258	52.579	N.2	1	SAM1	0.000	
19	  C2	27.203	23.351	52.979	C.2	1	SAM1	0.000	
20	  N3	27.585	24.336	52.146	N.2	1	SAM1	0.000	
21	  C4	27.289	24.204	50.821	C.2	1	SAM1	0.000	
22	  C5	26.542	23.073	50.330	C.2	1	SAM1	0.000	
23	  C6	26.176	22.045	51.305	C.2	1	SAM1	0.000	
24	  N6	25.525	20.978	50.887	N.pl3	1	SAM1	0.000	
25	  N7	26.421	23.162	48.982	N.2	1	SAM1	0.000	
26	  C8	26.995	24.338	48.680	C.2	1	SAM1	0.000	
27	  N9	27.519	24.965	49.761	N.2	1	SAM1	0.000	
28	  HA	27.214	29.115	47.498	 H	1	SAM1	0.000	
29	 HB1	25.991	29.605	45.238	 H	1	SAM1	0.000	
30	 HB2	24.730	28.564	45.940	 H	1	SAM1	0.000	
31	 HG1	26.170	27.226	44.582	 H	1	SAM1	0.000	
32	 HG2	26.430	26.806	46.292	 H	1	SAM1	0.000	
33	 HE1	28.147	27.844	43.079	 H	1	SAM1	0.000	
34	 HE2	28.198	26.194	43.745	 H	1	SAM1	0.000	
35	 HE3	29.677	27.184	43.703	 H	1	SAM1	0.000	
36	  H1	24.372	28.806	48.228	 H	1	SAM1	0.000	
37	  H2	25.626	28.914	49.293	 H	1	SAM1	0.000	
38	  H2	27.456	23.440	54.025	 H	1	SAM1	0.000	
39	  H3	25.509	27.613	48.286	 H	1	SAM1	0.000	
40	  H8	27.035	24.742	47.679	 H	1	SAM1	0.000	
41	 H1'	27.827	26.806	50.638	 H	1	SAM1	0.000	
42	 H2'	30.014	25.207	50.486	 H	1	SAM1	0.000	
43	 H2'	31.231	27.136	50.569	 H	1	SAM1	0.000	
44	 H3'	30.192	25.037	48.074	 H	1	SAM1	0.000	
45	 H3'	32.119	25.853	48.790	 H	1	SAM1	0.000	
46	 H4'	29.640	28.032	47.809	 H	1	SAM1	0.000	
47	 H61	25.288	20.882	49.910	 H	1	SAM1	0.000	
48	 H62	25.263	20.257	51.544	 H	1	SAM1	0.000	
49	H5'1	30.000	26.498	45.895	 H	1	SAM1	0.000	
50	H5'2	28.428	25.765	46.297	 H	1	SAM1	0.000	
@<TRIPOS>BOND
1 1 2 1
2 1 36 1
3 1 37 1
4 1 39 1
5 2 3 1
6 2 5 1
7 2 28 1
8 3 4 ar
9 3 17 ar
10 5 6 1
11 5 29 1
12 5 30 1
13 6 7 1
14 6 31 1
15 6 32 1
16 7 8 1
17 7 9 1
18 8 33 1
19 8 34 1
20 8 35 1
21 9 10 1
22 9 49 1
23 9 50 1
24 10 11 1
25 10 12 1
26 10 46 1
27 11 16 1
28 12 13 1
29 12 14 1
30 12 44 1
31 13 45 1
32 14 15 1
33 14 16 1
34 14 42 1
35 15 43 1
36 16 27 1
37 16 41 1
38 18 19 ar
39 18 23 ar
40 19 20 ar
41 19 38 1
42 20 21 ar
43 21 22 ar
44 21 27 ar
45 22 23 ar
46 22 25 ar
47 23 24 1
48 24 47 1
49 24 48 1
50 25 26 ar
51 26 27 ar
52 26 40 1
@<TRIPOS>SUBSTRUCTURE
1	SAM1	1	GROUP	1 A	SAM
