# created with PyMOL 2.5.0
@<TRIPOS>MOLECULE
6CEN
27 29 1                 
SMALL
USER_CHARGES
@<TRIPOS>ATOM
1	   N	25.352	28.607	48.371	N.3	1	SAM1301	0.000	
2	  CA	26.152	29.319	47.358	C.3	1	SAM1301	0.000	
3	   C	25.973	30.819	47.523	C.2	1	SAM1301	0.000	
4	   O	26.390	31.617	46.627	O.co2	1	SAM1301	0.000	
5	  CB	25.792	28.809	45.955	C.3	1	SAM1301	0.000	
6	  CG	26.577	27.573	45.532	C.3	1	SAM1301	0.000	
7	  SD	28.242	27.798	45.335	S.3	1	SAM1301	0.000	
8	  CE	28.596	27.205	43.839	C.3	1	SAM1301	0.000	
9	 C5'	29.017	26.682	46.329	C.3	1	SAM1301	0.000	
10	 C4'	29.237	27.019	47.803	C.3	1	SAM1301	0.000	
11	 O4'	28.027	26.924	48.533	O.3	1	SAM1301	0.000	
12	 C3'	30.198	26.049	48.479	C.3	1	SAM1301	0.000	
13	 O3'	31.563	26.463	48.298	O.3	1	SAM1301	0.000	
14	 C2'	29.726	26.087	49.911	C.3	1	SAM1301	0.000	
15	 O2'	30.277	27.240	50.554	O.3	1	SAM1301	0.000	
16	 C1'	28.223	26.255	49.785	C.3	1	SAM1301	0.000	
17	 OXT	25.397	31.206	48.566	O.co2	1	SAM1301	0.000	
18	  N1	26.521	22.258	52.579	N.2	1	SAM1301	0.000	
19	  C2	27.203	23.351	52.979	C.2	1	SAM1301	0.000	
20	  N3	27.585	24.336	52.146	N.2	1	SAM1301	0.000	
21	  C4	27.289	24.204	50.821	C.2	1	SAM1301	0.000	
22	  C5	26.542	23.073	50.330	C.2	1	SAM1301	0.000	
23	  C6	26.176	22.045	51.305	C.2	1	SAM1301	0.000	
24	  N6	25.525	20.978	50.887	N.pl3	1	SAM1301	0.000	
25	  N7	26.421	23.162	48.982	N.2	1	SAM1301	0.000	
26	  C8	26.995	24.338	48.680	C.2	1	SAM1301	0.000	
27	  N9	27.519	24.965	49.761	N.2	1	SAM1301	0.000	
@<TRIPOS>BOND
1 1 2 1
2 2 3 1
3 2 5 1
4 3 4 ar
5 3 17 ar
6 5 6 1
7 6 7 1
8 7 8 1
9 7 9 1
10 9 10 1
11 10 11 1
12 10 12 1
13 11 16 1
14 12 13 1
15 12 14 1
16 14 15 1
17 14 16 1
18 16 27 1
19 18 19 ar
20 18 23 ar
21 19 20 ar
22 20 21 ar
23 21 22 ar
24 21 27 ar
25 22 23 ar
26 22 25 ar
27 23 24 1
28 25 26 ar
29 26 27 ar
@<TRIPOS>SUBSTRUCTURE
1	SAM1301	1	GROUP	1 A	SAM
