@<TRIPOS>MOLECULE
6CEN.A
51 53 1 0 0 
SMALL
USER_CHARGES


@<TRIPOS>ATOM
  1 N       25.3520    28.6070    48.3710 N.4   1 SAM  -0.8530 
  2 H1      24.3724    28.8065    48.2275 H     1 SAM   0.4500 
  3 H2      25.6264    28.9138    49.2933 H     1 SAM   0.4500 
  4 H3      25.5091    27.6129    48.2863 H     1 SAM   0.4500 
  5 CA      26.1520    29.3190    47.3580 C.3   1 SAM   0.3170 
  6 HA      27.2136    29.1150    47.4978 H     1 SAM   0.0800 
  7 C       25.9730    30.8190    47.5230 C.2   1 SAM   0.9060 
  8 O       26.3900    31.6170    46.6270 O.co2 1 SAM  -0.9000 
  9 CB      25.7920    28.8090    45.9550 C.3   1 SAM  -0.1600 
 10 HB1     25.9913    29.6053    45.2378 H     1 SAM   0.0800 
 11 HB2     24.7300    28.5639    45.9400 H     1 SAM   0.0800 
 12 CG      26.5770    27.5730    45.5320 C.3   1 SAM  -0.1525 
 13 HG1     26.1705    27.2262    44.5819 H     1 SAM   0.0800 
 14 HG2     26.4297    26.8056    46.2919 H     1 SAM   0.0800 
 15 SD      28.2420    27.7980    45.3350 S.3   1 SAM   0.9775 
 16 CE      28.5960    27.2050    43.8390 C.3   1 SAM  -0.2325 
 17 HE1     28.1466    27.8443    43.0791 H     1 SAM   0.0800 
 18 HE2     28.1983    26.1945    43.7453 H     1 SAM   0.0800 
 19 HE3     29.6773    27.1839    43.7030 H     1 SAM   0.0800 
 20 C5'     29.0170    26.6820    46.3290 C.3   1 SAM  -0.1525 
 21 H5'1    29.9998    26.4982    45.8948 H     1 SAM   0.0800 
 22 H5'2    28.4284    25.7651    46.2969 H     1 SAM   0.0800 
 23 C4'     29.2370    27.0190    47.8030 C.3   1 SAM   0.2000 
 24 H4'     29.6398    28.0318    47.8091 H     1 SAM   0.0800 
 25 O4'     28.0270    26.9240    48.5330 O.3   1 SAM  -0.5600 
 26 C3'     30.1980    26.0490    48.4790 C.3   1 SAM   0.2000 
 27 H3'     30.1920    25.0370    48.0742 H     1 SAM   0.0800 
 28 O3'     31.5630    26.4630    48.2980 O.3   1 SAM  -0.6800 
 29 H3'     31.6424    27.3576    48.6370 H     1 SAM   0.4000 
 30 C2'     29.7260    26.0870    49.9110 C.3   1 SAM   0.2000 
 31 H2'     30.0144    25.2073    50.4863 H     1 SAM   0.0800 
 32 O2'     30.2770    27.2400    50.5540 O.3   1 SAM  -0.6800 
 33 H2'     31.2312    27.1358    50.5689 H     1 SAM   0.4000 
 34 C1'     28.2230    26.2550    49.7850 C.3   1 SAM   0.5691 
 35 H1'     27.8271    26.8062    50.6379 H     1 SAM   0.0800 
 36 OXT     25.3970    31.2060    48.5660 O.co2 1 SAM  -0.9000 
 37 N1      26.5210    22.2580    52.5790 N.2   1 SAM  -0.6610 
 38 C2      27.2030    23.3510    52.9790 C.2   1 SAM   0.6010 
 39 H2      27.4562    23.4402    54.0251 H     1 SAM   0.0600 
 40 N3      27.5850    24.3360    52.1460 N.2   1 SAM  -0.6610 
 41 C4      27.2890    24.2040    50.8210 C.2   1 SAM   0.5000 
 42 C5      26.5420    23.0730    50.3300 C.2   1 SAM   0.4500 
 43 C6      26.1760    22.0450    51.3050 C.2   1 SAM   0.6110 
 44 N6      25.5250    20.9780    50.8870 N.2   1 SAM  -0.2000 
 45 H62     25.2630    20.2568    51.5437 H     1 SAM   0.4000 
 46 H61     25.2881    20.8815    49.9099 H     1 SAM   0.4000 
 47 N7      26.4210    23.1620    48.9820 N.2   1 SAM  -0.6960 
 48 C8      26.9950    24.3380    48.6800 C.3   1 SAM   0.4551 
 49 H81     26.2421    24.9873    48.2331 H     1 SAM   0.0800 
 50 H82     27.7943    24.1597    47.9607 H     1 SAM   0.0800 
 51 N9      27.5190    24.9650    49.7610 N.pl3 1 SAM  -0.7882 
@<TRIPOS>BOND
  1   1   2  1   
  2   1   3  1   
  3   1   4  1   
  4   1   5  1   
  5   5   6  1   
  6   5   7  1   
  7   5   9  1   
  8   7   8  ar  
  9   7  36  ar  
 10   9  10  1   
 11   9  11  1   
 12   9  12  1   
 13  12  13  1   
 14  12  14  1   
 15  12  15  1   
 16  15  16  1   
 17  15  20  1   
 18  16  17  1   
 19  16  18  1   
 20  16  19  1   
 21  20  21  1   
 22  20  22  1   
 23  20  23  1   
 24  23  24  1   
 25  23  25  1   
 26  23  26  1   
 27  25  34  1   
 28  26  27  1   
 29  26  28  1   
 30  26  30  1   
 31  28  29  1   
 32  30  31  1   
 33  30  32  1   
 34  30  34  1   
 35  32  33  1   
 36  34  35  1   
 37  34  51  1   
 38  37  38  2   
 39  37  43  1   
 40  38  39  1   
 41  38  40  1   
 42  40  41  2   
 43  41  42  1   
 44  41  51  1   
 45  42  43  1   
 46  42  47  2   
 47  43  44  2   
 48  44  45  1   
 49  44  46  1   
 50  47  48  1   
 51  48  49  1   
 52  48  50  1   
 53  48  51  1   
@<TRIPOS>SUBSTRUCTURE
  1 SAM  25 GROUP 4 A **** 0

# MOE 2022.02 (io_trps.svl 2020.11)
