# created with PyMOL 2.5.0
@<TRIPOS>MOLECULE
3P97
27 29 1                 
SMALL
USER_CHARGES
@<TRIPOS>ATOM
1	   N	6.987	-7.459	43.640	N.3	1	SAM263	0.000	
2	  CA	7.476	-6.540	44.712	C.3	1	SAM263	0.000	
3	   C	8.150	-7.309	45.839	C.2	1	SAM263	0.000	
4	   O	8.263	-8.538	45.736	O.co2	1	SAM263	0.000	
5	  CB	6.288	-5.719	45.219	C.3	1	SAM263	0.000	
6	  CG	5.852	-4.799	44.073	C.3	1	SAM263	0.000	
7	  SD	4.644	-3.553	44.582	S.3	1	SAM263	0.000	
8	  CE	3.085	-4.476	44.545	C.3	1	SAM263	0.000	
9	 C5'	4.528	-2.544	43.088	C.3	1	SAM263	0.000	
10	 C4'	5.675	-1.557	43.045	C.3	1	SAM263	0.000	
11	 O4'	5.481	-0.862	41.847	O.3	1	SAM263	0.000	
12	 C3'	5.675	-0.495	44.164	C.3	1	SAM263	0.000	
13	 O3'	6.913	-0.513	44.852	O.3	1	SAM263	0.000	
14	 C2'	5.519	0.827	43.436	C.3	1	SAM263	0.000	
15	 O2'	6.289	1.855	44.007	O.3	1	SAM263	0.000	
16	 C1'	5.973	0.452	42.022	C.3	1	SAM263	0.000	
17	 OXT	8.611	-6.744	46.834	O.co2	1	SAM263	0.000	
18	  N1	7.011	2.762	37.478	N.2	1	SAM263	0.000	
19	  C2	7.848	2.001	38.274	C.2	1	SAM263	0.000	
20	  N3	7.393	1.474	39.473	N.2	1	SAM263	0.000	
21	  C4	6.098	1.682	39.845	C.2	1	SAM263	0.000	
22	  C5	5.228	2.437	39.061	C.2	1	SAM263	0.000	
23	  C6	5.695	2.995	37.845	C.2	1	SAM263	0.000	
24	  N6	4.893	3.718	37.045	N.pl3	1	SAM263	0.000	
25	  N7	4.026	2.478	39.695	N.2	1	SAM263	0.000	
26	  C8	4.111	1.757	40.849	C.2	1	SAM263	0.000	
27	  N9	5.408	1.287	40.968	N.2	1	SAM263	0.000	
@<TRIPOS>BOND
1 1 2 1
2 2 3 1
3 2 5 1
4 3 4 ar
5 3 17 ar
6 5 6 1
7 6 7 1
8 7 8 1
9 7 9 1
10 9 10 1
11 10 11 1
12 10 12 1
13 11 16 1
14 12 13 1
15 12 14 1
16 14 15 1
17 14 16 1
18 16 27 1
19 18 19 ar
20 18 23 ar
21 19 20 ar
22 20 21 ar
23 21 22 ar
24 21 27 ar
25 22 23 ar
26 22 25 ar
27 23 24 1
28 25 26 ar
29 26 27 ar
@<TRIPOS>SUBSTRUCTURE
1	SAM263	1	GROUP	1 A	SAM
