# created with PyMOL 2.4.0
@<TRIPOS>MOLECULE
temp
50 52 1                 
SMALL
USER_CHARGES
@<TRIPOS>ATOM
1	   N	6.987	-7.459	43.640	N.4	1	SAM1	0.000	
2	  CA	7.476	-6.540	44.712	C.3	1	SAM1	0.000	
3	   C	8.150	-7.309	45.839	C.2	1	SAM1	0.000	
4	   O	8.263	-8.538	45.736	O.co2	1	SAM1	0.000	
5	  CB	6.288	-5.719	45.219	C.3	1	SAM1	0.000	
6	  CG	5.852	-4.799	44.073	C.3	1	SAM1	0.000	
7	  SD	4.644	-3.553	44.582	S.3	1	SAM1	0.000	
8	  CE	3.085	-4.476	44.545	C.3	1	SAM1	0.000	
9	 C5'	4.528	-2.544	43.088	C.3	1	SAM1	0.000	
10	 C4'	5.675	-1.557	43.045	C.3	1	SAM1	0.000	
11	 O4'	5.481	-0.862	41.847	O.3	1	SAM1	0.000	
12	 C3'	5.675	-0.495	44.164	C.3	1	SAM1	0.000	
13	 O3'	6.913	-0.513	44.852	O.3	1	SAM1	0.000	
14	 C2'	5.519	0.827	43.436	C.3	1	SAM1	0.000	
15	 O2'	6.289	1.855	44.007	O.3	1	SAM1	0.000	
16	 C1'	5.973	0.452	42.022	C.3	1	SAM1	0.000	
17	 OXT	8.611	-6.744	46.834	O.co2	1	SAM1	0.000	
18	  N1	7.011	2.762	37.478	N.2	1	SAM1	0.000	
19	  C2	7.848	2.001	38.274	C.2	1	SAM1	0.000	
20	  N3	7.393	1.474	39.473	N.2	1	SAM1	0.000	
21	  C4	6.098	1.682	39.845	C.2	1	SAM1	0.000	
22	  C5	5.228	2.437	39.061	C.2	1	SAM1	0.000	
23	  C6	5.695	2.995	37.845	C.2	1	SAM1	0.000	
24	  N6	4.893	3.718	37.045	N.pl3	1	SAM1	0.000	
25	  N7	4.026	2.478	39.695	N.2	1	SAM1	0.000	
26	  C8	4.111	1.757	40.849	C.2	1	SAM1	0.000	
27	  N9	5.408	1.287	40.968	N.2	1	SAM1	0.000	
28	  HA	8.234	-5.870	44.305	 H	1	SAM1	0.000	
29	 HB1	6.586	-5.124	46.083	 H	1	SAM1	0.000	
30	 HB2	5.469	-6.381	45.499	 H	1	SAM1	0.000	
31	 HG1	5.409	-5.411	43.287	 H	1	SAM1	0.000	
32	 HG2	6.733	-4.289	43.684	 H	1	SAM1	0.000	
33	 HE1	3.032	-5.135	45.412	 H	1	SAM1	0.000	
34	 HE2	3.037	-5.071	43.633	 H	1	SAM1	0.000	
35	 HE3	2.249	-3.777	44.568	 H	1	SAM1	0.000	
36	  H1	6.285	-8.078	44.021	 H	1	SAM1	0.000	
37	  H2	7.760	-8.004	43.286	 H	1	SAM1	0.000	
38	  H2	8.864	1.816	37.959	 H	1	SAM1	0.000	
39	  H3	6.585	-6.916	42.889	 H	1	SAM1	0.000	
40	  H8	3.307	1.583	41.548	 H	1	SAM1	0.000	
41	 H1'	7.054	0.569	41.942	 H	1	SAM1	0.000	
42	 H2'	4.510	1.237	43.475	 H	1	SAM1	0.000	
43	 H2'	7.204	1.566	44.008	 H	1	SAM1	0.000	
44	 H3'	4.888	-0.669	44.898	 H	1	SAM1	0.000	
45	 H3'	6.890	0.186	45.510	 H	1	SAM1	0.000	
46	 H4'	6.607	-2.112	43.152	 H	1	SAM1	0.000	
47	 H61	3.930	3.876	37.305	 H	1	SAM1	0.000	
48	 H62	5.253	4.104	36.184	 H	1	SAM1	0.000	
49	H5'1	3.583	-2.001	43.091	 H	1	SAM1	0.000	
50	H5'2	4.573	-3.190	42.211	 H	1	SAM1	0.000	
@<TRIPOS>BOND
1 1 2 1
2 1 36 1
3 1 37 1
4 1 39 1
5 2 3 1
6 2 5 1
7 2 28 1
8 3 4 ar
9 3 17 ar
10 5 6 1
11 5 29 1
12 5 30 1
13 6 7 1
14 6 31 1
15 6 32 1
16 7 8 1
17 7 9 1
18 8 33 1
19 8 34 1
20 8 35 1
21 9 10 1
22 9 49 1
23 9 50 1
24 10 11 1
25 10 12 1
26 10 46 1
27 11 16 1
28 12 13 1
29 12 14 1
30 12 44 1
31 13 45 1
32 14 15 1
33 14 16 1
34 14 42 1
35 15 43 1
36 16 27 1
37 16 41 1
38 18 19 ar
39 18 23 ar
40 19 20 ar
41 19 38 1
42 20 21 ar
43 21 22 ar
44 21 27 ar
45 22 23 ar
46 22 25 ar
47 23 24 1
48 24 47 1
49 24 48 1
50 25 26 ar
51 26 27 ar
52 26 40 1
@<TRIPOS>SUBSTRUCTURE
1	SAM1	1	GROUP	1 A	SAM
