@<TRIPOS>MOLECULE
3P97.A
51 53 1 0 0 
SMALL
USER_CHARGES


@<TRIPOS>ATOM
  1 N        6.9870    -7.4590    43.6400 N.4   1 SAM  -0.8530 
  2 H1       6.2854    -8.0776    44.0211 H     1 SAM   0.4500 
  3 H2       7.7598    -8.0042    43.2856 H     1 SAM   0.4500 
  4 H3       6.5853    -6.9164    42.8888 H     1 SAM   0.4500 
  5 CA       7.4760    -6.5400    44.7120 C.3   1 SAM   0.3170 
  6 HA       8.2337    -5.8702    44.3054 H     1 SAM   0.0800 
  7 C        8.1500    -7.3090    45.8390 C.2   1 SAM   0.9060 
  8 O        8.2630    -8.5380    45.7360 O.co2 1 SAM  -0.9000 
  9 CB       6.2880    -5.7190    45.2190 C.3   1 SAM  -0.1600 
 10 HB1      6.5861    -5.1245    46.0826 H     1 SAM   0.0800 
 11 HB2      5.4686    -6.3811    45.4990 H     1 SAM   0.0800 
 12 CG       5.8520    -4.7990    44.0730 C.3   1 SAM  -0.1525 
 13 HG1      5.4091    -5.4105    43.2869 H     1 SAM   0.0800 
 14 HG2      6.7331    -4.2889    43.6836 H     1 SAM   0.0800 
 15 SD       4.6440    -3.5530    44.5820 S.3   1 SAM   0.9775 
 16 CE       3.0850    -4.4760    44.5450 C.3   1 SAM  -0.2325 
 17 HE1      3.0321    -5.1347    45.4119 H     1 SAM   0.0800 
 18 HE2      3.0366    -5.0710    43.6330 H     1 SAM   0.0800 
 19 HE3      2.2486    -3.7775    44.5679 H     1 SAM   0.0800 
 20 C5'      4.5280    -2.5440    43.0880 C.3   1 SAM  -0.1525 
 21 H5'1     3.5831    -2.0007    43.0908 H     1 SAM   0.0800 
 22 H5'2     4.5732    -3.1896    42.2110 H     1 SAM   0.0800 
 23 C4'      5.6750    -1.5570    43.0450 C.3   1 SAM   0.2000 
 24 H4'      6.6072    -2.1117    43.1520 H     1 SAM   0.0800 
 25 O4'      5.4810    -0.8620    41.8470 O.3   1 SAM  -0.5600 
 26 C3'      5.6750    -0.4950    44.1640 C.3   1 SAM   0.2000 
 27 H3'      4.8882    -0.6687    44.8980 H     1 SAM   0.0800 
 28 O3'      6.9130    -0.5130    44.8520 O.3   1 SAM  -0.6800 
 29 H3'      6.8896     0.1857    45.5099 H     1 SAM   0.4000 
 30 C2'      5.5190     0.8270    43.4360 C.3   1 SAM   0.2000 
 31 H2'      4.5098     1.2370    43.4755 H     1 SAM   0.0800 
 32 O2'      6.2890     1.8550    44.0070 O.3   1 SAM  -0.6800 
 33 H2'      7.2044     1.5656    44.0082 H     1 SAM   0.4000 
 34 C1'      5.9730     0.4520    42.0220 C.3   1 SAM   0.5691 
 35 H1'      7.0537     0.5693    41.9416 H     1 SAM   0.0800 
 36 OXT      8.6110    -6.7440    46.8340 O.co2 1 SAM  -0.9000 
 37 N1       7.0110     2.7620    37.4780 N.2   1 SAM  -0.6610 
 38 C2       7.8480     2.0010    38.2740 C.2   1 SAM   0.6010 
 39 H2       8.8643     1.8158    37.9590 H     1 SAM   0.0600 
 40 N3       7.3930     1.4740    39.4730 N.2   1 SAM  -0.6610 
 41 C4       6.0980     1.6820    39.8450 C.2   1 SAM   0.5000 
 42 C5       5.2280     2.4370    39.0610 C.2   1 SAM   0.4500 
 43 C6       5.6950     2.9950    37.8450 C.2   1 SAM   0.6110 
 44 N6       4.8930     3.7180    37.0450 N.2   1 SAM  -0.2000 
 45 H62      5.2534     4.1036    36.1839 H     1 SAM   0.4000 
 46 H61      3.9298     3.8758    37.3049 H     1 SAM   0.4000 
 47 N7       4.0260     2.4780    39.6950 N.2   1 SAM  -0.6960 
 48 C8       4.1110     1.7570    40.8490 C.3   1 SAM   0.4551 
 49 H81      3.4159     0.9182    40.8126 H     1 SAM   0.0800 
 50 H82      3.8688     2.3928    41.7006 H     1 SAM   0.0800 
 51 N9       5.4080     1.2870    40.9680 N.pl3 1 SAM  -0.7882 
@<TRIPOS>BOND
  1   1   2  1   
  2   1   3  1   
  3   1   4  1   
  4   1   5  1   
  5   5   6  1   
  6   5   7  1   
  7   5   9  1   
  8   7   8  ar  
  9   7  36  ar  
 10   9  10  1   
 11   9  11  1   
 12   9  12  1   
 13  12  13  1   
 14  12  14  1   
 15  12  15  1   
 16  15  16  1   
 17  15  20  1   
 18  16  17  1   
 19  16  18  1   
 20  16  19  1   
 21  20  21  1   
 22  20  22  1   
 23  20  23  1   
 24  23  24  1   
 25  23  25  1   
 26  23  26  1   
 27  25  34  1   
 28  26  27  1   
 29  26  28  1   
 30  26  30  1   
 31  28  29  1   
 32  30  31  1   
 33  30  32  1   
 34  30  34  1   
 35  32  33  1   
 36  34  35  1   
 37  34  51  1   
 38  37  38  2   
 39  37  43  1   
 40  38  39  1   
 41  38  40  1   
 42  40  41  2   
 43  41  42  1   
 44  41  51  1   
 45  42  43  1   
 46  42  47  2   
 47  43  44  2   
 48  44  45  1   
 49  44  46  1   
 50  47  48  1   
 51  48  49  1   
 52  48  50  1   
 53  48  51  1   
@<TRIPOS>SUBSTRUCTURE
  1 SAM  25 GROUP 4 A **** 0

# MOE 2022.02 (io_trps.svl 2020.11)
