@<TRIPOS>MOLECULE
2EGV.A
51 53 1 0 0 
SMALL
USER_CHARGES


@<TRIPOS>ATOM
  1 N       23.5460    -8.3020    14.9130 N.4   1 SAM  -0.8530 
  2 H1      22.5869    -7.9861    14.8909 H     1 SAM   0.4500 
  3 H2      23.6191    -9.1148    15.5081 H     1 SAM   0.4500 
  4 H3      23.8432    -8.5416    13.9779 H     1 SAM   0.4500 
  5 CA      24.4030    -7.2300    15.4400 C.3   1 SAM   0.3170 
  6 HA      25.4415    -7.5598    15.4685 H     1 SAM   0.0800 
  7 C       23.9400    -6.8750    16.8540 C.2   1 SAM   0.9060 
  8 O       24.7760    -7.0120    17.7740 O.co2 1 SAM  -0.9000 
  9 CB      24.2880    -6.0030    14.5340 C.3   1 SAM  -0.1600 
 10 HB1     24.7926    -5.1621    15.0098 H     1 SAM   0.0800 
 11 HB2     23.2341    -5.7625    14.3944 H     1 SAM   0.0800 
 12 CG      24.9260    -6.2580    13.1670 C.3   1 SAM  -0.1525 
 13 HG1     24.6807    -5.4222    12.5118 H     1 SAM   0.0800 
 14 HG2     24.5055    -7.1764    12.7572 H     1 SAM   0.0800 
 15 SD      26.7480    -6.4320    13.2240 S.3   1 SAM   0.9775 
 16 CE      27.0960    -5.7320    14.8240 C.3   1 SAM  -0.2325 
 17 HE1     26.6963    -6.3841    15.6006 H     1 SAM   0.0800 
 18 HE2     26.6305    -4.7493    14.8997 H     1 SAM   0.0800 
 19 HE3     28.1741    -5.6341    14.9511 H     1 SAM   0.0800 
 20 C5'     27.5060    -5.1730    12.1330 C.3   1 SAM  -0.1525 
 21 H5'1    28.3466    -4.7247    12.6627 H     1 SAM   0.0800 
 22 H5'2    26.7581    -4.4079    11.9247 H     1 SAM   0.0800 
 23 C4'     28.0180    -5.7180    10.7970 C.3   1 SAM   0.2000 
 24 H4'     28.2994    -4.8325    10.2270 H     1 SAM   0.0800 
 25 O4'     29.1310    -6.6080    10.9790 O.3   1 SAM  -0.5600 
 26 C3'     26.9600    -6.5290    10.0520 C.3   1 SAM   0.2000 
 27 H3'     26.3040    -7.1412    10.6709 H     1 SAM   0.0800 
 28 O3'     26.1320    -5.6300     9.3090 O.3   1 SAM  -0.6800 
 29 H3'     26.7075    -5.0894     8.7629 H     1 SAM   0.4000 
 30 C2'     27.8610    -7.2980     9.0860 C.3   1 SAM   0.2000 
 31 H2'     27.3722    -8.1549     8.6225 H     1 SAM   0.0800 
 32 O2'     28.2930    -6.4660     8.0060 O.3   1 SAM  -0.6800 
 33 H2'     28.8991    -6.9804     7.4678 H     1 SAM   0.4000 
 34 C1'     29.0500    -7.6450     9.9850 C.3   1 SAM   0.5691 
 35 H1'     29.9432    -7.7388     9.3674 H     1 SAM   0.0800 
 36 OXT     22.7600    -6.4840    16.9830 O.co2 1 SAM  -0.9000 
 37 N1      28.4870   -12.7290     9.5750 N.2   1 SAM  -0.6610 
 38 C2      28.5610   -11.8210     8.6170 C.2   1 SAM   0.6010 
 39 H2      28.5308   -12.1404     7.5857 H     1 SAM   0.0600 
 40 N3      28.6710   -10.5330     8.8890 N.2   1 SAM  -0.6610 
 41 C4      28.7140   -10.1130    10.1610 C.2   1 SAM   0.5000 
 42 C5      28.6360   -11.0350    11.1960 C.2   1 SAM   0.4500 
 43 C6      28.5210   -12.3810    10.8690 C.2   1 SAM   0.6110 
 44 N6      28.4550   -13.3100    11.8180 N.2   1 SAM  -0.2000 
 45 H62     28.3716   -14.2845    11.5658 H     1 SAM   0.4000 
 46 H61     28.4883   -13.0412    12.7910 H     1 SAM   0.4000 
 47 N7      28.7040   -10.3590    12.3390 N.2   1 SAM  -0.6960 
 48 C8      28.8210    -9.0670    12.0410 C.3   1 SAM   0.4551 
 49 H81     29.7496    -8.6805    12.4610 H     1 SAM   0.0800 
 50 H82     27.9769    -8.5200    12.4610 H     1 SAM   0.0800 
 51 N9      28.8350    -8.9130    10.7180 N.pl3 1 SAM  -0.7882 
@<TRIPOS>BOND
  1   1   2  1   
  2   1   3  1   
  3   1   4  1   
  4   1   5  1   
  5   5   6  1   
  6   5   7  1   
  7   5   9  1   
  8   7   8  ar  
  9   7  36  ar  
 10   9  10  1   
 11   9  11  1   
 12   9  12  1   
 13  12  13  1   
 14  12  14  1   
 15  12  15  1   
 16  15  16  1   
 17  15  20  1   
 18  16  17  1   
 19  16  18  1   
 20  16  19  1   
 21  20  21  1   
 22  20  22  1   
 23  20  23  1   
 24  23  24  1   
 25  23  25  1   
 26  23  26  1   
 27  25  34  1   
 28  26  27  1   
 29  26  28  1   
 30  26  30  1   
 31  28  29  1   
 32  30  31  1   
 33  30  32  1   
 34  30  34  1   
 35  32  33  1   
 36  34  35  1   
 37  34  51  1   
 38  37  38  2   
 39  37  43  1   
 40  38  39  1   
 41  38  40  1   
 42  40  41  2   
 43  41  42  1   
 44  41  51  1   
 45  42  43  1   
 46  42  47  2   
 47  43  44  2   
 48  44  45  1   
 49  44  46  1   
 50  47  48  1   
 51  48  49  1   
 52  48  50  1   
 53  48  51  1   
@<TRIPOS>SUBSTRUCTURE
  1 SAM  48 GROUP 4 A **** 0

# MOE 2022.02 (io_trps.svl 2020.11)
