# created with PyMOL 2.4.0
@<TRIPOS>MOLECULE
temp
50 52 1                 
SMALL
USER_CHARGES
@<TRIPOS>ATOM
1	   N	56.803	-6.627	14.037	N.4	1	SAM1	0.000	
2	  CA	55.848	-5.810	14.799	C.3	1	SAM1	0.000	
3	   C	56.226	-4.335	14.653	C.2	1	SAM1	0.000	
4	   O	55.414	-3.600	14.050	O.co2	1	SAM1	0.000	
5	  CB	55.907	-6.210	16.274	C.3	1	SAM1	0.000	
6	  CG	55.366	-7.625	16.489	C.3	1	SAM1	0.000	
7	  SD	53.572	-7.790	16.167	S.3	1	SAM1	0.000	
8	  CE	53.064	-6.084	16.227	C.3	1	SAM1	0.000	
9	 C5'	52.744	-8.443	17.662	C.3	1	SAM1	0.000	
10	 C4'	52.261	-9.888	17.520	C.3	1	SAM1	0.000	
11	 O4'	51.208	-9.997	16.549	O.3	1	SAM1	0.000	
12	 C3'	53.371	-10.810	17.017	C.3	1	SAM1	0.000	
13	 O3'	54.165	-11.227	18.132	O.3	1	SAM1	0.000	
14	 C2'	52.527	-11.979	16.513	C.3	1	SAM1	0.000	
15	 O2'	52.051	-12.785	17.594	O.3	1	SAM1	0.000	
16	 C1'	51.346	-11.254	15.863	C.3	1	SAM1	0.000	
17	 OXT	57.318	-3.977	15.146	O.co2	1	SAM1	0.000	
18	  N1	51.962	-13.153	11.128	N.2	1	SAM1	0.000	
19	  C2	51.886	-13.800	12.278	C.2	1	SAM1	0.000	
20	  N3	51.766	-13.160	13.428	N.2	1	SAM1	0.000	
21	  C4	51.723	-11.821	13.457	C.2	1	SAM1	0.000	
22	  C5	51.806	-11.106	12.270	C.2	1	SAM1	0.000	
23	  C6	51.923	-11.814	11.081	C.2	1	SAM1	0.000	
24	  N6	51.962	-11.181	9.912	N.pl3	1	SAM1	0.000	
25	  N7	51.739	-9.814	12.580	N.2	1	SAM1	0.000	
26	  C8	51.612	-9.717	13.902	C.2	1	SAM1	0.000	
27	  N9	51.592	-10.935	14.439	N.2	1	SAM1	0.000	
28	  HA	54.838	-5.969	14.421	 H	1	SAM1	0.000	
29	 HB1	55.309	-5.509	16.856	 H	1	SAM1	0.000	
30	 HB2	56.943	-6.171	16.611	 H	1	SAM1	0.000	
31	 HG1	55.557	-7.912	17.523	 H	1	SAM1	0.000	
32	 HG2	55.898	-8.301	15.820	 H	1	SAM1	0.000	
33	 HE1	53.489	-5.548	15.378	 H	1	SAM1	0.000	
34	 HE2	53.416	-5.633	17.155	 H	1	SAM1	0.000	
35	 HE3	51.976	-6.027	16.185	 H	1	SAM1	0.000	
36	  H1	57.736	-6.475	14.393	 H	1	SAM1	0.000	
37	  H2	56.768	-6.365	13.062	 H	1	SAM1	0.000	
38	  H2	51.923	-14.879	12.278	 H	1	SAM1	0.000	
39	  H3	56.562	-7.603	14.132	 H	1	SAM1	0.000	
40	  H8	51.537	-8.792	14.454	 H	1	SAM1	0.000	
41	 H1'	50.468	-11.896	15.926	 H	1	SAM1	0.000	
42	 H2'	53.077	-12.652	15.854	 H	1	SAM1	0.000	
43	 H2'	52.816	-13.168	18.029	 H	1	SAM1	0.000	
44	 H3'	54.054	-10.382	16.283	 H	1	SAM1	0.000	
45	 H3'	53.572	-11.606	18.785	 H	1	SAM1	0.000	
46	 H4'	51.924	-10.177	18.515	 H	1	SAM1	0.000	
47	 H61	51.906	-10.173	9.881	 H	1	SAM1	0.000	
48	 H62	52.047	-11.708	9.055	 H	1	SAM1	0.000	
49	H5'1	51.882	-7.813	17.880	 H	1	SAM1	0.000	
50	H5'2	53.448	-8.396	18.493	 H	1	SAM1	0.000	
@<TRIPOS>BOND
1 1 2 1
2 1 36 1
3 1 37 1
4 1 39 1
5 2 3 1
6 2 5 1
7 2 28 1
8 3 4 ar
9 3 17 ar
10 5 6 1
11 5 29 1
12 5 30 1
13 6 7 1
14 6 31 1
15 6 32 1
16 7 8 1
17 7 9 1
18 8 33 1
19 8 34 1
20 8 35 1
21 9 10 1
22 9 49 1
23 9 50 1
24 10 11 1
25 10 12 1
26 10 46 1
27 11 16 1
28 12 13 1
29 12 14 1
30 12 44 1
31 13 45 1
32 14 15 1
33 14 16 1
34 14 42 1
35 15 43 1
36 16 27 1
37 16 41 1
38 18 19 ar
39 18 23 ar
40 19 20 ar
41 19 38 1
42 20 21 ar
43 21 22 ar
44 21 27 ar
45 22 23 ar
46 22 25 ar
47 23 24 1
48 24 47 1
49 24 48 1
50 25 26 ar
51 26 27 ar
52 26 40 1
@<TRIPOS>SUBSTRUCTURE
1	SAM1	1	GROUP	1 B	SAM
