# created with PyMOL 2.4.0
@<TRIPOS>MOLECULE
temp
50 52 1                 
SMALL
USER_CHARGES
@<TRIPOS>ATOM
1	   N	23.546	-8.302	14.913	N.4	1	SAM1	0.000	
2	  CA	24.403	-7.230	15.440	C.3	1	SAM1	0.000	
3	   C	23.940	-6.875	16.854	C.2	1	SAM1	0.000	
4	   O	24.776	-7.012	17.774	O.co2	1	SAM1	0.000	
5	  CB	24.288	-6.003	14.534	C.3	1	SAM1	0.000	
6	  CG	24.926	-6.258	13.167	C.3	1	SAM1	0.000	
7	  SD	26.748	-6.432	13.224	S.3	1	SAM1	0.000	
8	  CE	27.096	-5.732	14.824	C.3	1	SAM1	0.000	
9	 C5'	27.506	-5.173	12.133	C.3	1	SAM1	0.000	
10	 C4'	28.018	-5.718	10.797	C.3	1	SAM1	0.000	
11	 O4'	29.131	-6.608	10.979	O.3	1	SAM1	0.000	
12	 C3'	26.960	-6.529	10.052	C.3	1	SAM1	0.000	
13	 O3'	26.132	-5.630	9.309	O.3	1	SAM1	0.000	
14	 C2'	27.861	-7.298	9.086	C.3	1	SAM1	0.000	
15	 O2'	28.293	-6.466	8.006	O.3	1	SAM1	0.000	
16	 C1'	29.050	-7.645	9.985	C.3	1	SAM1	0.000	
17	 OXT	22.760	-6.484	16.983	O.co2	1	SAM1	0.000	
18	  N1	28.487	-12.729	9.575	N.2	1	SAM1	0.000	
19	  C2	28.561	-11.821	8.617	C.2	1	SAM1	0.000	
20	  N3	28.671	-10.533	8.889	N.2	1	SAM1	0.000	
21	  C4	28.714	-10.113	10.161	C.2	1	SAM1	0.000	
22	  C5	28.636	-11.035	11.196	C.2	1	SAM1	0.000	
23	  C6	28.521	-12.381	10.869	C.2	1	SAM1	0.000	
24	  N6	28.455	-13.310	11.818	N.pl3	1	SAM1	0.000	
25	  N7	28.704	-10.359	12.339	N.2	1	SAM1	0.000	
26	  C8	28.821	-9.067	12.041	C.2	1	SAM1	0.000	
27	  N9	28.835	-8.913	10.718	N.2	1	SAM1	0.000	
28	  HA	25.441	-7.560	15.469	 H	1	SAM1	0.000	
29	 HB1	24.793	-5.162	15.010	 H	1	SAM1	0.000	
30	 HB2	23.234	-5.762	14.394	 H	1	SAM1	0.000	
31	 HG1	24.681	-5.422	12.512	 H	1	SAM1	0.000	
32	 HG2	24.506	-7.176	12.757	 H	1	SAM1	0.000	
33	 HE1	26.696	-6.384	15.601	 H	1	SAM1	0.000	
34	 HE2	26.631	-4.749	14.900	 H	1	SAM1	0.000	
35	 HE3	28.174	-5.634	14.951	 H	1	SAM1	0.000	
36	  H1	22.587	-7.986	14.891	 H	1	SAM1	0.000	
37	  H2	23.619	-9.115	15.508	 H	1	SAM1	0.000	
38	  H2	28.531	-12.140	7.586	 H	1	SAM1	0.000	
39	  H3	23.843	-8.542	13.978	 H	1	SAM1	0.000	
40	  H8	28.894	-8.266	12.762	 H	1	SAM1	0.000	
41	 H1'	29.943	-7.739	9.367	 H	1	SAM1	0.000	
42	 H2'	27.372	-8.155	8.623	 H	1	SAM1	0.000	
43	 H2'	27.514	-6.211	7.506	 H	1	SAM1	0.000	
44	 H3'	26.304	-7.141	10.671	 H	1	SAM1	0.000	
45	 H3'	26.708	-5.089	8.763	 H	1	SAM1	0.000	
46	 H4'	28.299	-4.832	10.227	 H	1	SAM1	0.000	
47	 H61	28.488	-13.041	12.791	 H	1	SAM1	0.000	
48	 H62	28.372	-14.285	11.566	 H	1	SAM1	0.000	
49	H5'1	28.347	-4.725	12.663	 H	1	SAM1	0.000	
50	H5'2	26.758	-4.408	11.925	 H	1	SAM1	0.000	
@<TRIPOS>BOND
1 1 2 1
2 1 36 1
3 1 37 1
4 1 39 1
5 2 3 1
6 2 5 1
7 2 28 1
8 3 4 ar
9 3 17 ar
10 5 6 1
11 5 29 1
12 5 30 1
13 6 7 1
14 6 31 1
15 6 32 1
16 7 8 1
17 7 9 1
18 8 33 1
19 8 34 1
20 8 35 1
21 9 10 1
22 9 49 1
23 9 50 1
24 10 11 1
25 10 12 1
26 10 46 1
27 11 16 1
28 12 13 1
29 12 14 1
30 12 44 1
31 13 45 1
32 14 15 1
33 14 16 1
34 14 42 1
35 15 43 1
36 16 27 1
37 16 41 1
38 18 19 ar
39 18 23 ar
40 19 20 ar
41 19 38 1
42 20 21 ar
43 21 22 ar
44 21 27 ar
45 22 23 ar
46 22 25 ar
47 23 24 1
48 24 47 1
49 24 48 1
50 25 26 ar
51 26 27 ar
52 26 40 1
@<TRIPOS>SUBSTRUCTURE
1	SAM1	1	GROUP	1 A	SAM
