@<TRIPOS>MOLECULE
2EGV.B
51 53 1 0 0 
SMALL
USER_CHARGES


@<TRIPOS>ATOM
  1 N       56.8030    -6.6270    14.0370 N.4   1 SAM  -0.8530 
  2 H1      57.7357    -6.4747    14.3933 H     1 SAM   0.4500 
  3 H2      56.7679    -6.3646    13.0623 H     1 SAM   0.4500 
  4 H3      56.5616    -7.6031    14.1317 H     1 SAM   0.4500 
  5 CA      55.8480    -5.8100    14.7990 C.3   1 SAM   0.3170 
  6 HA      54.8382    -5.9685    14.4206 H     1 SAM   0.0800 
  7 C       56.2260    -4.3350    14.6530 C.2   1 SAM   0.9060 
  8 O       55.4140    -3.6000    14.0500 O.co2 1 SAM  -0.9000 
  9 CB      55.9070    -6.2100    16.2740 C.3   1 SAM  -0.1600 
 10 HB1     55.3088    -5.5090    16.8561 H     1 SAM   0.0800 
 11 HB2     56.9428    -6.1710    16.6112 H     1 SAM   0.0800 
 12 CG      55.3660    -7.6250    16.4890 C.3   1 SAM  -0.1525 
 13 HG1     55.5569    -7.9119    17.5231 H     1 SAM   0.0800 
 14 HG2     55.8983    -8.3013    15.8201 H     1 SAM   0.0800 
 15 SD      53.5720    -7.7900    16.1670 S.3   1 SAM   0.9775 
 16 CE      53.0640    -6.0840    16.2270 C.3   1 SAM  -0.2325 
 17 HE1     53.4889    -5.5483    15.3781 H     1 SAM   0.0800 
 18 HE2     53.4159    -5.6325    17.1546 H     1 SAM   0.0800 
 19 HE3     51.9763    -6.0271    16.1850 H     1 SAM   0.0800 
 20 C5'     52.7440    -8.4430    17.6620 C.3   1 SAM  -0.1525 
 21 H5'1    51.8820    -7.8126    17.8803 H     1 SAM   0.0800 
 22 H5'2    53.4481    -8.3962    18.4928 H     1 SAM   0.0800 
 23 C4'     52.2610    -9.8880    17.5200 C.3   1 SAM   0.2000 
 24 H4'     51.9239   -10.1772    18.5154 H     1 SAM   0.0800 
 25 O4'     51.2080    -9.9970    16.5490 O.3   1 SAM  -0.5600 
 26 C3'     53.3710   -10.8100    17.0170 C.3   1 SAM   0.2000 
 27 H3'     54.0539   -10.3824    16.2829 H     1 SAM   0.0800 
 28 O3'     54.1650   -11.2270    18.1320 O.3   1 SAM  -0.6800 
 29 H3'     53.5720   -11.6056    18.7852 H     1 SAM   0.4000 
 30 C2'     52.5270   -11.9790    16.5130 C.3   1 SAM   0.2000 
 31 H2'     53.0766   -12.6516    15.8544 H     1 SAM   0.0800 
 32 O2'     52.0510   -12.7850    17.5940 O.3   1 SAM  -0.6800 
 33 H2'     51.4850   -13.4652    17.2216 H     1 SAM   0.4000 
 34 C1'     51.3460   -11.2540    15.8630 C.3   1 SAM   0.5691 
 35 H1'     50.4676   -11.8963    15.9264 H     1 SAM   0.0800 
 36 OXT     57.3180    -3.9770    15.1460 O.co2 1 SAM  -0.9000 
 37 N1      51.9620   -13.1530    11.1280 N.2   1 SAM  -0.6610 
 38 C2      51.8860   -13.8000    12.2780 C.2   1 SAM   0.6010 
 39 H2      51.9229   -14.8794    12.2779 H     1 SAM   0.0600 
 40 N3      51.7660   -13.1600    13.4280 N.2   1 SAM  -0.6610 
 41 C4      51.7230   -11.8210    13.4570 C.2   1 SAM   0.5000 
 42 C5      51.8060   -11.1060    12.2700 C.2   1 SAM   0.4500 
 43 C6      51.9230   -11.8140    11.0810 C.2   1 SAM   0.6110 
 44 N6      51.9620   -11.1810     9.9120 N.2   1 SAM  -0.2000 
 45 H62     52.0473   -11.7083     9.0548 H     1 SAM   0.4000 
 46 H61     51.9063   -10.1730     9.8814 H     1 SAM   0.4000 
 47 N7      51.7390    -9.8140    12.5800 N.2   1 SAM  -0.6960 
 48 C8      51.6120    -9.7170    13.9020 C.3   1 SAM   0.4551 
 49 H81     50.6824    -9.2001    14.1402 H     1 SAM   0.0800 
 50 H82     52.4539    -9.1556    14.3071 H     1 SAM   0.0800 
 51 N9      51.5920   -10.9350    14.4390 N.pl3 1 SAM  -0.7882 
@<TRIPOS>BOND
  1   1   2  1   
  2   1   3  1   
  3   1   4  1   
  4   1   5  1   
  5   5   6  1   
  6   5   7  1   
  7   5   9  1   
  8   7   8  ar  
  9   7  36  ar  
 10   9  10  1   
 11   9  11  1   
 12   9  12  1   
 13  12  13  1   
 14  12  14  1   
 15  12  15  1   
 16  15  16  1   
 17  15  20  1   
 18  16  17  1   
 19  16  18  1   
 20  16  19  1   
 21  20  21  1   
 22  20  22  1   
 23  20  23  1   
 24  23  24  1   
 25  23  25  1   
 26  23  26  1   
 27  25  34  1   
 28  26  27  1   
 29  26  28  1   
 30  26  30  1   
 31  28  29  1   
 32  30  31  1   
 33  30  32  1   
 34  30  34  1   
 35  32  33  1   
 36  34  35  1   
 37  34  51  1   
 38  37  38  2   
 39  37  43  1   
 40  38  39  1   
 41  38  40  1   
 42  40  41  2   
 43  41  42  1   
 44  41  51  1   
 45  42  43  1   
 46  42  47  2   
 47  43  44  2   
 48  44  45  1   
 49  44  46  1   
 50  47  48  1   
 51  48  49  1   
 52  48  50  1   
 53  48  51  1   
@<TRIPOS>SUBSTRUCTURE
  1 SAM  48 GROUP 4 B **** 0

# MOE 2022.02 (io_trps.svl 2020.11)
