# created with PyMOL 2.5.0
@<TRIPOS>MOLECULE
2EGV
27 29 1                 
SMALL
USER_CHARGES
@<TRIPOS>ATOM
1	   N	23.546	-8.302	14.913	N.3	1	SAM1300	0.000	
2	  CA	24.403	-7.230	15.440	C.3	1	SAM1300	0.000	
3	   C	23.940	-6.875	16.854	C.2	1	SAM1300	0.000	
4	   O	24.776	-7.012	17.774	O.co2	1	SAM1300	0.000	
5	  CB	24.288	-6.003	14.534	C.3	1	SAM1300	0.000	
6	  CG	24.926	-6.258	13.167	C.3	1	SAM1300	0.000	
7	  SD	26.748	-6.432	13.224	S.3	1	SAM1300	0.000	
8	  CE	27.096	-5.732	14.824	C.3	1	SAM1300	0.000	
9	 C5'	27.506	-5.173	12.133	C.3	1	SAM1300	0.000	
10	 C4'	28.018	-5.718	10.797	C.3	1	SAM1300	0.000	
11	 O4'	29.131	-6.608	10.979	O.3	1	SAM1300	0.000	
12	 C3'	26.960	-6.529	10.052	C.3	1	SAM1300	0.000	
13	 O3'	26.132	-5.630	9.309	O.3	1	SAM1300	0.000	
14	 C2'	27.861	-7.298	9.086	C.3	1	SAM1300	0.000	
15	 O2'	28.293	-6.466	8.006	O.3	1	SAM1300	0.000	
16	 C1'	29.050	-7.645	9.985	C.3	1	SAM1300	0.000	
17	 OXT	22.760	-6.484	16.983	O.co2	1	SAM1300	0.000	
18	  N1	28.487	-12.729	9.575	N.2	1	SAM1300	0.000	
19	  C2	28.561	-11.821	8.617	C.2	1	SAM1300	0.000	
20	  N3	28.671	-10.533	8.889	N.2	1	SAM1300	0.000	
21	  C4	28.714	-10.113	10.161	C.2	1	SAM1300	0.000	
22	  C5	28.636	-11.035	11.196	C.2	1	SAM1300	0.000	
23	  C6	28.521	-12.381	10.869	C.2	1	SAM1300	0.000	
24	  N6	28.455	-13.310	11.818	N.pl3	1	SAM1300	0.000	
25	  N7	28.704	-10.359	12.339	N.2	1	SAM1300	0.000	
26	  C8	28.821	-9.067	12.041	C.2	1	SAM1300	0.000	
27	  N9	28.835	-8.913	10.718	N.2	1	SAM1300	0.000	
@<TRIPOS>BOND
1 1 2 1
2 2 3 1
3 2 5 1
4 3 4 ar
5 3 17 ar
6 5 6 1
7 6 7 1
8 7 8 1
9 7 9 1
10 9 10 1
11 10 11 1
12 10 12 1
13 11 16 1
14 12 13 1
15 12 14 1
16 14 15 1
17 14 16 1
18 16 27 1
19 18 19 ar
20 18 23 ar
21 19 20 ar
22 20 21 ar
23 21 22 ar
24 21 27 ar
25 22 23 ar
26 22 25 ar
27 23 24 1
28 25 26 ar
29 26 27 ar
@<TRIPOS>SUBSTRUCTURE
1	SAM1300	1	GROUP	1 A	SAM
