@<TRIPOS>MOLECULE
1WG8.A
51 53 1 0 0 
SMALL
USER_CHARGES


@<TRIPOS>ATOM
  1 N       50.4640    80.3730    11.0760 N.4   1 SAM  -0.8530 
  2 H1      49.8740    79.5563    11.1468 H     1 SAM   0.4500 
  3 H2      50.7567    80.6580    11.9997 H     1 SAM   0.4500 
  4 H3      51.2768    80.1537    10.5180 H     1 SAM   0.4500 
  5 CA      49.7000    81.4860    10.4290 C.3   1 SAM   0.3170 
  6 HA      50.3497    82.3585    10.3601 H     1 SAM   0.0800 
  7 C       48.4730    81.8410    11.2580 C.2   1 SAM   0.9060 
  8 O       48.2580    81.2030    12.2880 O.co2 1 SAM  -0.9000 
  9 CB      49.2510    81.0570     9.0280 C.3   1 SAM  -0.1600 
 10 HB1     48.4830    81.7399     8.6648 H     1 SAM   0.0800 
 11 HB2     48.8483    80.0449     9.0668 H     1 SAM   0.0800 
 12 CG      50.4240    81.0930     8.1140 C.3   1 SAM  -0.1525 
 13 HG1     51.1605    80.3924     8.5075 H     1 SAM   0.0800 
 14 HG2     50.8292    82.1043     8.1497 H     1 SAM   0.0800 
 15 SD      50.1700    80.6780     6.3640 S.3   1 SAM   0.9775 
 16 CE      49.8720    78.8950     6.4400 C.3   1 SAM  -0.2325 
 17 HE1     48.8605    78.7108     6.8019 H     1 SAM   0.0800 
 18 HE2     50.5902    78.4352     7.1189 H     1 SAM   0.0800 
 19 HE3     49.9859    78.4648     5.4450 H     1 SAM   0.0800 
 20 C5'     51.8240    80.8520     5.7700 C.3   1 SAM  -0.1525 
 21 H5'1    51.8914    80.3280     4.8166 H     1 SAM   0.0800 
 22 H5'2    52.4881    80.3781     6.4928 H     1 SAM   0.0800 
 23 C4'     52.3190    82.2860     5.5510 C.3   1 SAM   0.2000 
 24 H4'     52.1007    82.8810     6.4378 H     1 SAM   0.0800 
 25 O4'     53.6970    82.1570     5.1900 O.3   1 SAM  -0.5600 
 26 C3'     51.6870    82.9060     4.3010 C.3   1 SAM   0.2000 
 27 H3'     51.0086    82.2464     3.7598 H     1 SAM   0.0800 
 28 O3'     51.0760    84.1080     4.8410 O.3   1 SAM  -0.6800 
 29 H3'     50.7122    84.6047     4.1045 H     1 SAM   0.4000 
 30 C2'     52.8310    83.3560     3.3770 C.3   1 SAM   0.2000 
 31 H2'     52.7915    82.7775     2.4540 H     1 SAM   0.0800 
 32 O2'     52.7870    84.5750     2.6550 O.3   1 SAM  -0.6800 
 33 H2'     52.8118    85.2915     3.2934 H     1 SAM   0.4000 
 34 C1'     54.0730    83.1260     4.2680 C.3   1 SAM   0.5691 
 35 H1'     54.3493    84.0979     4.6768 H     1 SAM   0.0800 
 36 OXT     47.7550    82.7850    10.7980 O.co2 1 SAM  -0.9000 
 37 N1      59.1250    84.0350     3.3960 N.2   1 SAM  -0.6610 
 38 C2      58.1860    84.7510     4.1040 C.2   1 SAM   0.6010 
 39 H2      58.5341    85.6569     4.5780 H     1 SAM   0.0600 
 40 N3      56.8680    84.4490     4.2760 N.2   1 SAM  -0.6610 
 41 C4      56.5090    83.2690     3.6370 C.2   1 SAM   0.5000 
 42 C5      57.3560    82.4480     2.8910 C.2   1 SAM   0.4500 
 43 C6      58.7210    82.8750     2.7750 C.2   1 SAM   0.6110 
 44 N6      59.6270    82.1720     2.0820 N.2   1 SAM  -0.2000 
 45 H62     60.5803    82.4997     2.0194 H     1 SAM   0.4000 
 46 H61     59.3566    81.3143     1.6222 H     1 SAM   0.4000 
 47 N7      56.6660    81.3400     2.3950 N.2   1 SAM  -0.6960 
 48 C8      55.4440    81.5020     2.8440 C.3   1 SAM   0.4551 
 49 H81     55.1879    80.6389     3.4585 H     1 SAM   0.0800 
 50 H82     54.7693    81.5526     1.9894 H     1 SAM   0.0800 
 51 N9      55.2690    82.6390     3.6010 N.pl3 1 SAM  -0.7882 
@<TRIPOS>BOND
  1   1   2  1   
  2   1   3  1   
  3   1   4  1   
  4   1   5  1   
  5   5   6  1   
  6   5   7  1   
  7   5   9  1   
  8   7   8  ar  
  9   7  36  ar  
 10   9  10  1   
 11   9  11  1   
 12   9  12  1   
 13  12  13  1   
 14  12  14  1   
 15  12  15  1   
 16  15  16  1   
 17  15  20  1   
 18  16  17  1   
 19  16  18  1   
 20  16  19  1   
 21  20  21  1   
 22  20  22  1   
 23  20  23  1   
 24  23  24  1   
 25  23  25  1   
 26  23  26  1   
 27  25  34  1   
 28  26  27  1   
 29  26  28  1   
 30  26  30  1   
 31  28  29  1   
 32  30  31  1   
 33  30  32  1   
 34  30  34  1   
 35  32  33  1   
 36  34  35  1   
 37  34  51  1   
 38  37  38  2   
 39  37  43  1   
 40  38  39  1   
 41  38  40  1   
 42  40  41  2   
 43  41  42  1   
 44  41  51  1   
 45  42  43  1   
 46  42  47  2   
 47  43  44  2   
 48  44  45  1   
 49  44  46  1   
 50  47  48  1   
 51  48  49  1   
 52  48  50  1   
 53  48  51  1   
@<TRIPOS>SUBSTRUCTURE
  1 SAM  25 GROUP 4 A **** 0

# MOE 2022.02 (io_trps.svl 2020.11)
