# created with PyMOL 2.5.0
@<TRIPOS>MOLECULE
1WG8
27 29 1                 
SMALL
USER_CHARGES
@<TRIPOS>ATOM
1	   N	50.464	80.373	11.076	N.3	1	SAM3142	0.000	
2	  CA	49.700	81.486	10.429	C.3	1	SAM3142	0.000	
3	   C	48.473	81.841	11.258	C.2	1	SAM3142	0.000	
4	   O	48.258	81.203	12.288	O.co2	1	SAM3142	0.000	
5	  CB	49.251	81.057	9.028	C.3	1	SAM3142	0.000	
6	  CG	50.424	81.093	8.114	C.3	1	SAM3142	0.000	
7	  SD	50.170	80.678	6.364	S.3	1	SAM3142	0.000	
8	  CE	49.872	78.895	6.440	C.3	1	SAM3142	0.000	
9	 C5'	51.824	80.852	5.770	C.3	1	SAM3142	0.000	
10	 C4'	52.319	82.286	5.551	C.3	1	SAM3142	0.000	
11	 O4'	53.697	82.157	5.190	O.3	1	SAM3142	0.000	
12	 C3'	51.687	82.906	4.301	C.3	1	SAM3142	0.000	
13	 O3'	51.076	84.108	4.841	O.3	1	SAM3142	0.000	
14	 C2'	52.831	83.356	3.377	C.3	1	SAM3142	0.000	
15	 O2'	52.787	84.575	2.655	O.3	1	SAM3142	0.000	
16	 C1'	54.073	83.126	4.268	C.3	1	SAM3142	0.000	
17	 OXT	47.755	82.785	10.798	O.co2	1	SAM3142	0.000	
18	  N1	59.125	84.035	3.396	N.2	1	SAM3142	0.000	
19	  C2	58.186	84.751	4.104	C.2	1	SAM3142	0.000	
20	  N3	56.868	84.449	4.276	N.2	1	SAM3142	0.000	
21	  C4	56.509	83.269	3.637	C.2	1	SAM3142	0.000	
22	  C5	57.356	82.448	2.891	C.2	1	SAM3142	0.000	
23	  C6	58.721	82.875	2.775	C.2	1	SAM3142	0.000	
24	  N6	59.627	82.172	2.082	N.pl3	1	SAM3142	0.000	
25	  N7	56.666	81.340	2.395	N.2	1	SAM3142	0.000	
26	  C8	55.444	81.502	2.844	C.2	1	SAM3142	0.000	
27	  N9	55.269	82.639	3.601	N.2	1	SAM3142	0.000	
@<TRIPOS>BOND
1 1 2 1
2 2 3 1
3 2 5 1
4 3 4 ar
5 3 17 ar
6 5 6 1
7 6 7 1
8 7 8 1
9 7 9 1
10 9 10 1
11 10 11 1
12 10 12 1
13 11 16 1
14 12 13 1
15 12 14 1
16 14 15 1
17 14 16 1
18 16 27 1
19 18 19 ar
20 18 23 ar
21 19 20 ar
22 20 21 ar
23 21 22 ar
24 21 27 ar
25 22 23 ar
26 22 25 ar
27 23 24 1
28 25 26 ar
29 26 27 ar
@<TRIPOS>SUBSTRUCTURE
1	SAM3142	1	GROUP	1 A	SAM
