# created with PyMOL 2.4.0
@<TRIPOS>MOLECULE
temp
50 52 1                 
SMALL
USER_CHARGES
@<TRIPOS>ATOM
1	   N	50.464	80.373	11.076	N.4	1	SAM1	0.000	
2	  CA	49.700	81.486	10.429	C.3	1	SAM1	0.000	
3	   C	48.473	81.841	11.258	C.2	1	SAM1	0.000	
4	   O	48.258	81.203	12.288	O.co2	1	SAM1	0.000	
5	  CB	49.251	81.057	9.028	C.3	1	SAM1	0.000	
6	  CG	50.424	81.093	8.114	C.3	1	SAM1	0.000	
7	  SD	50.170	80.678	6.364	S.3	1	SAM1	0.000	
8	  CE	49.872	78.895	6.440	C.3	1	SAM1	0.000	
9	 C5'	51.824	80.852	5.770	C.3	1	SAM1	0.000	
10	 C4'	52.319	82.286	5.551	C.3	1	SAM1	0.000	
11	 O4'	53.697	82.157	5.190	O.3	1	SAM1	0.000	
12	 C3'	51.687	82.906	4.301	C.3	1	SAM1	0.000	
13	 O3'	51.076	84.108	4.841	O.3	1	SAM1	0.000	
14	 C2'	52.831	83.356	3.377	C.3	1	SAM1	0.000	
15	 O2'	52.787	84.575	2.655	O.3	1	SAM1	0.000	
16	 C1'	54.073	83.126	4.268	C.3	1	SAM1	0.000	
17	 OXT	47.755	82.785	10.798	O.co2	1	SAM1	0.000	
18	  N1	59.125	84.035	3.396	N.2	1	SAM1	0.000	
19	  C2	58.186	84.751	4.104	C.2	1	SAM1	0.000	
20	  N3	56.868	84.449	4.276	N.2	1	SAM1	0.000	
21	  C4	56.509	83.269	3.637	C.2	1	SAM1	0.000	
22	  C5	57.356	82.448	2.891	C.2	1	SAM1	0.000	
23	  C6	58.721	82.875	2.775	C.2	1	SAM1	0.000	
24	  N6	59.627	82.172	2.082	N.pl3	1	SAM1	0.000	
25	  N7	56.666	81.340	2.395	N.2	1	SAM1	0.000	
26	  C8	55.444	81.502	2.844	C.2	1	SAM1	0.000	
27	  N9	55.269	82.639	3.601	N.2	1	SAM1	0.000	
28	  HA	50.350	82.358	10.360	 H	1	SAM1	0.000	
29	 HB1	48.483	81.740	8.665	 H	1	SAM1	0.000	
30	 HB2	48.848	80.045	9.067	 H	1	SAM1	0.000	
31	 HG1	51.160	80.392	8.507	 H	1	SAM1	0.000	
32	 HG2	50.829	82.104	8.150	 H	1	SAM1	0.000	
33	 HE1	48.861	78.711	6.802	 H	1	SAM1	0.000	
34	 HE2	50.590	78.435	7.119	 H	1	SAM1	0.000	
35	 HE3	49.986	78.465	5.445	 H	1	SAM1	0.000	
36	  H1	49.874	79.556	11.147	 H	1	SAM1	0.000	
37	  H2	50.757	80.658	12.000	 H	1	SAM1	0.000	
38	  H2	58.534	85.657	4.578	 H	1	SAM1	0.000	
39	  H3	51.277	80.154	10.518	 H	1	SAM1	0.000	
40	  H8	54.645	80.805	2.638	 H	1	SAM1	0.000	
41	 H1'	54.349	84.098	4.677	 H	1	SAM1	0.000	
42	 H2'	52.792	82.777	2.454	 H	1	SAM1	0.000	
43	 H2'	52.812	85.291	3.293	 H	1	SAM1	0.000	
44	 H3'	51.009	82.246	3.760	 H	1	SAM1	0.000	
45	 H3'	50.712	84.605	4.104	 H	1	SAM1	0.000	
46	 H4'	52.101	82.881	6.438	 H	1	SAM1	0.000	
47	 H61	59.357	81.314	1.622	 H	1	SAM1	0.000	
48	 H62	60.580	82.500	2.019	 H	1	SAM1	0.000	
49	H5'1	51.891	80.328	4.817	 H	1	SAM1	0.000	
50	H5'2	52.488	80.378	6.493	 H	1	SAM1	0.000	
@<TRIPOS>BOND
1 1 2 1
2 1 36 1
3 1 37 1
4 1 39 1
5 2 3 1
6 2 5 1
7 2 28 1
8 3 4 ar
9 3 17 ar
10 5 6 1
11 5 29 1
12 5 30 1
13 6 7 1
14 6 31 1
15 6 32 1
16 7 8 1
17 7 9 1
18 8 33 1
19 8 34 1
20 8 35 1
21 9 10 1
22 9 49 1
23 9 50 1
24 10 11 1
25 10 12 1
26 10 46 1
27 11 16 1
28 12 13 1
29 12 14 1
30 12 44 1
31 13 45 1
32 14 15 1
33 14 16 1
34 14 42 1
35 15 43 1
36 16 27 1
37 16 41 1
38 18 19 ar
39 18 23 ar
40 19 20 ar
41 19 38 1
42 20 21 ar
43 21 22 ar
44 21 27 ar
45 22 23 ar
46 22 25 ar
47 23 24 1
48 24 47 1
49 24 48 1
50 25 26 ar
51 26 27 ar
52 26 40 1
@<TRIPOS>SUBSTRUCTURE
1	SAM1	1	GROUP	1 A	SAM
