@<TRIPOS>MOLECULE
6PAF.A
53 56 1 0 0 
SMALL
USER_CHARGES


@<TRIPOS>ATOM
  1 N01     25.0270     4.0340   -14.2950 N.4   1 O6A  -0.8530 
  2 H011    24.9202     4.8122   -14.9299 H     1 O6A   0.4500 
  3 H012    25.2878     3.2085   -14.8152 H     1 O6A   0.4500 
  4 H013    25.7465     4.2472   -13.6190 H     1 O6A   0.4500 
  5 C04     23.7580     3.7930   -13.5990 C.3   1 O6A   0.4865 
  6 H041    23.4989     4.6849   -13.0286 H     1 O6A   0.0800 
  7 H042    23.8885     2.9517   -12.9184 H     1 O6A   0.0800 
  8 C07     22.6200     3.4770   -14.5460 C.ar  1 O6A  -0.1435 
  9 C08     22.8490     2.8730   -15.7980 C.ar  1 O6A  -0.1500 
 10 H08     23.8493     2.6313   -16.1258 H     1 O6A   0.1500 
 11 C10     21.7370     2.5960   -16.6040 C.ar  1 O6A  -0.1500 
 12 H10     21.8554     2.1291   -17.5706 H     1 O6A   0.1500 
 13 C12     20.4820     2.9370   -16.1280 C.ar  1 O6A  -0.0090 
 14 C13     20.2180     3.5490   -14.9140 C.ar  1 O6A  -0.1500 
 15 H13     19.2166     3.8070   -14.6025 H     1 O6A   0.1500 
 16 C15     21.3290     3.8070   -14.1270 C.ar  1 O6A  -0.1500 
 17 H15     21.1930     4.2759   -13.1636 H     1 O6A   0.1500 
 18 S17     19.0670     2.5890   -17.1310 S.o2  1 O6A   1.4470 
 19 O18     19.3850     2.6770   -18.5270 O.2   1 O6A  -0.6500 
 20 O19     17.9590     3.3750   -16.6830 O.2   1 O6A  -0.6500 
 21 N20     18.7160     0.9930   -16.8670 N.am  1 O6A  -0.8494 
 22 C21     18.2080     0.6820   -15.5200 C.3   1 O6A   0.1957 
 23 H211    17.6352     1.5227   -15.1286 H     1 O6A   0.0800 
 24 H212    19.0353     0.4607   -14.8457 H     1 O6A   0.0800 
 25 C24     17.3200    -0.5300   -15.6750 C.3   1 O6A  -0.1600 
 26 H241    16.4905    -0.3038   -16.3450 H     1 O6A   0.0800 
 27 H242    16.9299    -0.8356   -14.7041 H     1 O6A   0.0800 
 28 C27     18.1900    -1.6470   -16.2700 C.3   1 O6A   0.2201 
 29 H27     18.9375    -1.8658   -15.5074 H     1 O6A   0.0800 
 30 C29     18.8300    -1.2570   -17.6150 C.3   1 O6A  -0.1600 
 31 H291    18.0460    -1.0843   -18.3523 H     1 O6A   0.0800 
 32 H292    19.4774    -2.0651   -17.9556 H     1 O6A   0.0800 
 33 C32     19.6440    -0.0010   -17.4470 C.3   1 O6A   0.1957 
 34 H321    20.4832    -0.1775   -16.7742 H     1 O6A   0.0800 
 35 H322    20.0177     0.3432   -18.4114 H     1 O6A   0.0800 
 36 N35     17.3420    -2.7520   -16.6550 N.am  1 O6A  -0.7301 
 37 H35     16.9383    -2.7503   -17.5808 H     1 O6A   0.3700 
 38 C37     17.0670    -3.7790   -15.8390 C.2   1 O6A   0.7160 
 39 O38     17.4910    -3.8640   -14.7060 O.2   1 O6A  -0.5700 
 40 C39     16.2340    -4.7570   -16.4730 C.2   1 O6A   0.2028 
 41 C40     16.0550    -6.1480   -16.1220 C.2   1 O6A  -0.1500 
 42 H40     16.5216    -6.6919   -15.3140 H     1 O6A   0.1500 
 43 C42     15.1730    -6.6140   -17.0320 C.2   1 O6A   0.0550 
 44 O43     14.7890    -5.6230   -17.8770 O.3   1 O6A  -0.0191 
 45 N44     15.4380    -4.4980   -17.5070 N.2   1 O6A  -0.4097 
 46 C45     14.5280    -7.9170   -17.2090 C.3   1 O6A  -0.0150 
 47 H45     13.9845    -7.5798   -18.0916 H     1 O6A   0.1000 
 48 C47     14.1400    -8.6990   -16.0280 C.3   1 O6A  -0.2000 
 49 H471    13.2336    -9.3041   -16.0464 H     1 O6A   0.1000 
 50 H472    14.2819    -8.2874   -15.0287 H     1 O6A   0.1000 
 51 C50     15.3250    -9.0960   -16.8520 C.3   1 O6A  -0.2000 
 52 H501    16.3326    -8.9748   -16.4544 H     1 O6A   0.1000 
 53 H502    15.2844    -9.9915   -17.4721 H     1 O6A   0.1000 
@<TRIPOS>BOND
  1   1   2  1   
  2   1   3  1   
  3   1   4  1   
  4   1   5  1   
  5   5   6  1   
  6   5   7  1   
  7   5   8  1   
  8   8   9  ar  
  9   8  16  ar  
 10   9  10  1   
 11   9  11  ar  
 12  11  12  1   
 13  11  13  ar  
 14  13  14  ar  
 15  13  18  1   
 16  14  15  1   
 17  14  16  ar  
 18  16  17  1   
 19  18  19  2   
 20  18  20  2   
 21  18  21  am  
 22  21  22  1   
 23  21  33  1   
 24  22  23  1   
 25  22  24  1   
 26  22  25  1   
 27  25  26  1   
 28  25  27  1   
 29  25  28  1   
 30  28  29  1   
 31  28  30  1   
 32  28  36  1   
 33  30  31  1   
 34  30  32  1   
 35  30  33  1   
 36  33  34  1   
 37  33  35  1   
 38  36  37  1   
 39  36  38  am  
 40  38  39  2   
 41  38  40  1   
 42  40  41  1   
 43  40  45  2   
 44  41  42  1   
 45  41  43  2   
 46  43  44  1   
 47  43  46  1   
 48  44  45  1   
 49  46  47  1   
 50  46  48  1   
 51  46  51  1   
 52  48  49  1   
 53  48  50  1   
 54  48  51  1   
 55  51  52  1   
 56  51  53  1   
@<TRIPOS>SUBSTRUCTURE
  1 O6A  28 GROUP 4 A **** 0

# MOE 2022.02 (io_trps.svl 2020.11)
