# created with PyMOL 2.5.0
@<TRIPOS>MOLECULE
6PAF
28 31 1                 
SMALL
USER_CHARGES
@<TRIPOS>ATOM
1	 N01	25.027	4.034	-14.295	N.3	1	O6A509	0.000	
2	 C04	23.758	3.793	-13.599	C.3	1	O6A509	0.000	
3	 C07	22.620	3.477	-14.546	C.2	1	O6A509	0.000	
4	 C08	22.849	2.873	-15.798	C.2	1	O6A509	0.000	
5	 C10	21.737	2.596	-16.604	C.2	1	O6A509	0.000	
6	 C12	20.482	2.937	-16.128	C.2	1	O6A509	0.000	
7	 C13	20.218	3.549	-14.914	C.2	1	O6A509	0.000	
8	 C15	21.329	3.807	-14.127	C.2	1	O6A509	0.000	
9	 S17	19.067	2.589	-17.131	S.o2	1	O6A509	0.000	
10	 O18	19.385	2.677	-18.527	O.2	1	O6A509	0.000	
11	 O19	17.959	3.375	-16.683	O.2	1	O6A509	0.000	
12	 N20	18.716	0.993	-16.867	N.3	1	O6A509	0.000	
13	 C21	18.208	0.682	-15.520	C.3	1	O6A509	0.000	
14	 C24	17.320	-0.530	-15.675	C.3	1	O6A509	0.000	
15	 C27	18.190	-1.647	-16.270	C.3	1	O6A509	0.000	
16	 C29	18.830	-1.257	-17.615	C.3	1	O6A509	0.000	
17	 C32	19.644	-0.001	-17.447	C.3	1	O6A509	0.000	
18	 N35	17.342	-2.752	-16.655	N.pl3	1	O6A509	0.000	
19	 C37	17.067	-3.779	-15.839	C.2	1	O6A509	0.000	
20	 O38	17.491	-3.864	-14.706	O.2	1	O6A509	0.000	
21	 C39	16.234	-4.757	-16.473	C.2	1	O6A509	0.000	
22	 C40	16.055	-6.148	-16.122	C.2	1	O6A509	0.000	
23	 C42	15.173	-6.614	-17.032	C.2	1	O6A509	0.000	
24	 O43	14.789	-5.623	-17.877	O.2	1	O6A509	0.000	
25	 N44	15.438	-4.498	-17.507	N.2	1	O6A509	0.000	
26	 C45	14.528	-7.917	-17.209	C.3	1	O6A509	0.000	
27	 C47	14.140	-8.699	-16.028	C.3	1	O6A509	0.000	
28	 C50	15.325	-9.096	-16.852	C.3	1	O6A509	0.000	
@<TRIPOS>BOND
1 1 2 1
2 2 3 1
3 3 4 ar
4 3 8 ar
5 4 5 ar
6 5 6 ar
7 6 7 ar
8 6 9 1
9 7 8 ar
10 9 10 2
11 9 11 2
12 9 12 1
13 12 13 1
14 12 17 1
15 13 14 1
16 14 15 1
17 15 16 1
18 15 18 1
19 16 17 1
20 18 19 1
21 19 20 2
22 19 21 1
23 21 22 ar
24 21 25 ar
25 22 23 ar
26 23 24 ar
27 23 26 1
28 24 25 ar
29 26 27 1
30 26 28 1
31 27 28 1
@<TRIPOS>SUBSTRUCTURE
1	O6A509	1	GROUP	1 A	O6A
