# created with PyMOL 2.5.0
@<TRIPOS>MOLECULE
6PAF
27 29 1                 
SMALL
USER_CHARGES
@<TRIPOS>ATOM
1	   N	11.124	-14.701	-22.896	N.3	1	SAM508	0.000	
2	  CA	10.963	-14.607	-21.428	C.3	1	SAM508	0.000	
3	   C	10.008	-15.651	-20.932	C.2	1	SAM508	0.000	
4	   O	9.700	-15.580	-19.754	O.co2	1	SAM508	0.000	
5	  CB	10.585	-13.186	-20.996	C.3	1	SAM508	0.000	
6	  CG	11.782	-12.236	-20.866	C.3	1	SAM508	0.000	
7	  SD	12.760	-12.773	-19.397	S.3	1	SAM508	0.000	
8	  CE	12.939	-11.265	-18.430	C.3	1	SAM508	0.000	
9	 C5'	14.487	-12.912	-19.983	C.3	1	SAM508	0.000	
10	 C4'	14.728	-14.103	-20.886	C.3	1	SAM508	0.000	
11	 O4'	13.991	-13.952	-22.116	O.3	1	SAM508	0.000	
12	 C3'	16.200	-14.210	-21.305	C.3	1	SAM508	0.000	
13	 O3'	16.945	-14.776	-20.264	O.3	1	SAM508	0.000	
14	 C2'	16.064	-15.048	-22.556	C.3	1	SAM508	0.000	
15	 O2'	15.760	-16.394	-22.190	O.3	1	SAM508	0.000	
16	 C1'	14.824	-14.436	-23.170	C.3	1	SAM508	0.000	
17	 OXT	9.622	-16.509	-21.723	O.co2	1	SAM508	0.000	
18	  N1	16.379	-12.857	-27.831	N.2	1	SAM508	0.000	
19	  C2	16.301	-14.112	-27.299	C.2	1	SAM508	0.000	
20	  N3	15.898	-14.389	-26.042	N.2	1	SAM508	0.000	
21	  C4	15.543	-13.319	-25.297	C.2	1	SAM508	0.000	
22	  C5	15.617	-12.004	-25.758	C.2	1	SAM508	0.000	
23	  C6	16.042	-11.783	-27.058	C.2	1	SAM508	0.000	
24	  N6	16.144	-10.583	-27.638	N.pl3	1	SAM508	0.000	
25	  N7	15.238	-11.175	-24.764	N.2	1	SAM508	0.000	
26	  C8	14.921	-11.939	-23.715	C.2	1	SAM508	0.000	
27	  N9	15.143	-13.276	-24.004	N.2	1	SAM508	0.000	
@<TRIPOS>BOND
1 1 2 1
2 2 3 1
3 2 5 1
4 3 4 ar
5 3 17 ar
6 5 6 1
7 6 7 1
8 7 8 1
9 7 9 1
10 9 10 1
11 10 11 1
12 10 12 1
13 11 16 1
14 12 13 1
15 12 14 1
16 14 15 1
17 14 16 1
18 16 27 1
19 18 19 ar
20 18 23 ar
21 19 20 ar
22 20 21 ar
23 21 22 ar
24 21 27 ar
25 22 23 ar
26 22 25 ar
27 23 24 1
28 25 26 ar
29 26 27 ar
@<TRIPOS>SUBSTRUCTURE
1	SAM508	1	GROUP	1 A	SAM
