# created with PyMOL 2.4.0
@<TRIPOS>MOLECULE
temp
50 52 1                 
SMALL
USER_CHARGES
@<TRIPOS>ATOM
1	   N	11.124	-14.701	-22.896	N.4	1	SAM1	0.000	
2	  CA	10.963	-14.607	-21.428	C.3	1	SAM1	0.000	
3	   C	10.008	-15.651	-20.932	C.2	1	SAM1	0.000	
4	   O	9.700	-15.580	-19.754	O.co2	1	SAM1	0.000	
5	  CB	10.585	-13.186	-20.996	C.3	1	SAM1	0.000	
6	  CG	11.782	-12.236	-20.866	C.3	1	SAM1	0.000	
7	  SD	12.760	-12.773	-19.397	S.3	1	SAM1	0.000	
8	  CE	12.939	-11.265	-18.430	C.3	1	SAM1	0.000	
9	 C5'	14.487	-12.912	-19.983	C.3	1	SAM1	0.000	
10	 C4'	14.728	-14.103	-20.886	C.3	1	SAM1	0.000	
11	 O4'	13.991	-13.952	-22.116	O.3	1	SAM1	0.000	
12	 C3'	16.200	-14.210	-21.305	C.3	1	SAM1	0.000	
13	 O3'	16.945	-14.776	-20.264	O.3	1	SAM1	0.000	
14	 C2'	16.064	-15.048	-22.556	C.3	1	SAM1	0.000	
15	 O2'	15.760	-16.394	-22.190	O.3	1	SAM1	0.000	
16	 C1'	14.824	-14.436	-23.170	C.3	1	SAM1	0.000	
17	 OXT	9.622	-16.509	-21.723	O.co2	1	SAM1	0.000	
18	  N1	16.379	-12.857	-27.831	N.2	1	SAM1	0.000	
19	  C2	16.301	-14.112	-27.299	C.2	1	SAM1	0.000	
20	  N3	15.898	-14.389	-26.042	N.2	1	SAM1	0.000	
21	  C4	15.543	-13.319	-25.297	C.2	1	SAM1	0.000	
22	  C5	15.617	-12.004	-25.758	C.2	1	SAM1	0.000	
23	  C6	16.042	-11.783	-27.058	C.2	1	SAM1	0.000	
24	  N6	16.144	-10.583	-27.638	N.pl3	1	SAM1	0.000	
25	  N7	15.238	-11.175	-24.764	N.2	1	SAM1	0.000	
26	  C8	14.921	-11.939	-23.715	C.2	1	SAM1	0.000	
27	  N9	15.143	-13.276	-24.004	N.2	1	SAM1	0.000	
28	  HA	11.924	-14.815	-20.958	 H	1	SAM1	0.000	
29	 HB1	10.086	-13.243	-20.029	 H	1	SAM1	0.000	
30	 HB2	9.899	-12.774	-21.736	 H	1	SAM1	0.000	
31	 HG1	11.432	-11.213	-20.726	 H	1	SAM1	0.000	
32	 HG2	12.399	-12.290	-21.763	 H	1	SAM1	0.000	
33	 HE1	11.980	-11.005	-17.981	 H	1	SAM1	0.000	
34	 HE2	13.268	-10.454	-19.080	 H	1	SAM1	0.000	
35	 HE3	13.677	-11.423	-17.644	 H	1	SAM1	0.000	
36	  H1	10.239	-14.510	-23.345	 H	1	SAM1	0.000	
37	  H2	11.433	-15.631	-23.142	 H	1	SAM1	0.000	
38	  H2	16.582	-14.942	-27.930	 H	1	SAM1	0.000	
39	  H3	11.810	-14.026	-23.203	 H	1	SAM1	0.000	
40	  H8	14.544	-11.567	-22.774	 H	1	SAM1	0.000	
41	 H1'	14.344	-15.204	-23.777	 H	1	SAM1	0.000	
42	 H2'	16.949	-15.063	-23.192	 H	1	SAM1	0.000	
43	 H2'	16.519	-16.745	-21.718	 H	1	SAM1	0.000	
44	 H3'	16.739	-13.283	-21.502	 H	1	SAM1	0.000	
45	 H3'	17.838	-14.913	-20.587	 H	1	SAM1	0.000	
46	 H4'	14.419	-14.981	-20.320	 H	1	SAM1	0.000	
47	 H61	15.902	-9.750	-27.121	 H	1	SAM1	0.000	
48	 H62	16.463	-10.509	-28.593	 H	1	SAM1	0.000	
49	H5'1	15.139	-13.001	-19.114	 H	1	SAM1	0.000	
50	H5'2	14.738	-12.006	-20.534	 H	1	SAM1	0.000	
@<TRIPOS>BOND
1 1 2 1
2 1 36 1
3 1 37 1
4 1 39 1
5 2 3 1
6 2 5 1
7 2 28 1
8 3 4 ar
9 3 17 ar
10 5 6 1
11 5 29 1
12 5 30 1
13 6 7 1
14 6 31 1
15 6 32 1
16 7 8 1
17 7 9 1
18 8 33 1
19 8 34 1
20 8 35 1
21 9 10 1
22 9 49 1
23 9 50 1
24 10 11 1
25 10 12 1
26 10 46 1
27 11 16 1
28 12 13 1
29 12 14 1
30 12 44 1
31 13 45 1
32 14 15 1
33 14 16 1
34 14 42 1
35 15 43 1
36 16 27 1
37 16 41 1
38 18 19 ar
39 18 23 ar
40 19 20 ar
41 19 38 1
42 20 21 ar
43 21 22 ar
44 21 27 ar
45 22 23 ar
46 22 25 ar
47 23 24 1
48 24 47 1
49 24 48 1
50 25 26 ar
51 26 27 ar
52 26 40 1
@<TRIPOS>SUBSTRUCTURE
1	SAM1	1	GROUP	1 A	SAM
