@<TRIPOS>MOLECULE
6PAF.A
51 53 1 0 0 
SMALL
USER_CHARGES


@<TRIPOS>ATOM
  1 N       11.1240   -14.7010   -22.8960 N.4   1 SAM  -0.8530 
  2 H1      10.2394   -14.5105   -23.3446 H     1 SAM   0.4500 
  3 H2      11.4329   -15.6306   -23.1420 H     1 SAM   0.4500 
  4 H3      11.8096   -14.0261   -23.2034 H     1 SAM   0.4500 
  5 CA      10.9630   -14.6070   -21.4280 C.3   1 SAM   0.3170 
  6 HA      11.9240   -14.8146   -20.9575 H     1 SAM   0.0800 
  7 C       10.0080   -15.6510   -20.9320 C.2   1 SAM   0.9060 
  8 O        9.7000   -15.5800   -19.7540 O.co2 1 SAM  -0.9000 
  9 CB      10.5850   -13.1860   -20.9960 C.3   1 SAM  -0.1600 
 10 HB1     10.0856   -13.2429   -20.0288 H     1 SAM   0.0800 
 11 HB2      9.8986   -12.7738   -21.7356 H     1 SAM   0.0800 
 12 CG      11.7820   -12.2360   -20.8660 C.3   1 SAM  -0.1525 
 13 HG1     11.4318   -11.2133   -20.7262 H     1 SAM   0.0800 
 14 HG2     12.3986   -12.2895   -21.7632 H     1 SAM   0.0800 
 15 SD      12.7600   -12.7730   -19.3970 S.3   1 SAM   0.9775 
 16 CE      12.9390   -11.2650   -18.4300 C.3   1 SAM  -0.2325 
 17 HE1     11.9802   -11.0051   -17.9813 H     1 SAM   0.0800 
 18 HE2     13.2680   -10.4538   -19.0795 H     1 SAM   0.0800 
 19 HE3     13.6772   -11.4230   -17.6437 H     1 SAM   0.0800 
 20 C5'     14.4870   -12.9120   -19.9830 C.3   1 SAM  -0.1525 
 21 H5'1    15.1393   -13.0010   -19.1143 H     1 SAM   0.0800 
 22 H5'2    14.7376   -12.0057   -20.5342 H     1 SAM   0.0800 
 23 C4'     14.7280   -14.1030   -20.8860 C.3   1 SAM   0.2000 
 24 H4'     14.4189   -14.9815   -20.3196 H     1 SAM   0.0800 
 25 O4'     13.9910   -13.9520   -22.1160 O.3   1 SAM  -0.5600 
 26 C3'     16.2000   -14.2100   -21.3050 C.3   1 SAM   0.2000 
 27 H3'     16.7390   -13.2834   -21.5024 H     1 SAM   0.0800 
 28 O3'     16.9450   -14.7760   -20.2640 O.3   1 SAM  -0.6800 
 29 H3'     17.8385   -14.9126   -20.5874 H     1 SAM   0.4000 
 30 C2'     16.0640   -15.0480   -22.5560 C.3   1 SAM   0.2000 
 31 H2'     16.9488   -15.0630   -23.1924 H     1 SAM   0.0800 
 32 O2'     15.7600   -16.3940   -22.1900 O.3   1 SAM  -0.6800 
 33 H2'     16.5188   -16.7449   -21.7181 H     1 SAM   0.4000 
 34 C1'     14.8240   -14.4360   -23.1700 C.3   1 SAM   0.5691 
 35 H1'     14.3442   -15.2040   -23.7767 H     1 SAM   0.0800 
 36 OXT      9.6220   -16.5090   -21.7230 O.co2 1 SAM  -0.9000 
 37 N1      16.3790   -12.8570   -27.8310 N.2   1 SAM  -0.6610 
 38 C2      16.3010   -14.1120   -27.2990 C.2   1 SAM   0.6010 
 39 H2      16.5821   -14.9423   -27.9298 H     1 SAM   0.0600 
 40 N3      15.8980   -14.3890   -26.0420 N.2   1 SAM  -0.6610 
 41 C4      15.5430   -13.3190   -25.2970 C.2   1 SAM   0.5000 
 42 C5      15.6170   -12.0040   -25.7580 C.2   1 SAM   0.4500 
 43 C6      16.0420   -11.7830   -27.0580 C.2   1 SAM   0.6110 
 44 N6      16.1440   -10.5830   -27.6380 N.2   1 SAM  -0.2000 
 45 H62     16.4634   -10.5094   -28.5933 H     1 SAM   0.4000 
 46 H61     15.9017    -9.7499   -27.1209 H     1 SAM   0.4000 
 47 N7      15.2380   -11.1750   -24.7640 N.2   1 SAM  -0.6960 
 48 C8      14.9210   -11.9390   -23.7150 C.3   1 SAM   0.4551 
 49 H81     13.8685   -11.7946   -23.4710 H     1 SAM   0.0800 
 50 H82     15.5347   -11.6496   -22.8619 H     1 SAM   0.0800 
 51 N9      15.1430   -13.2760   -24.0040 N.pl3 1 SAM  -0.7882 
@<TRIPOS>BOND
  1   1   2  1   
  2   1   3  1   
  3   1   4  1   
  4   1   5  1   
  5   5   6  1   
  6   5   7  1   
  7   5   9  1   
  8   7   8  ar  
  9   7  36  ar  
 10   9  10  1   
 11   9  11  1   
 12   9  12  1   
 13  12  13  1   
 14  12  14  1   
 15  12  15  1   
 16  15  16  1   
 17  15  20  1   
 18  16  17  1   
 19  16  18  1   
 20  16  19  1   
 21  20  21  1   
 22  20  22  1   
 23  20  23  1   
 24  23  24  1   
 25  23  25  1   
 26  23  26  1   
 27  25  34  1   
 28  26  27  1   
 29  26  28  1   
 30  26  30  1   
 31  28  29  1   
 32  30  31  1   
 33  30  32  1   
 34  30  34  1   
 35  32  33  1   
 36  34  35  1   
 37  34  51  1   
 38  37  38  2   
 39  37  43  1   
 40  38  39  1   
 41  38  40  1   
 42  40  41  2   
 43  41  42  1   
 44  41  51  1   
 45  42  43  1   
 46  42  47  2   
 47  43  44  2   
 48  44  45  1   
 49  44  46  1   
 50  47  48  1   
 51  48  49  1   
 52  48  50  1   
 53  48  51  1   
@<TRIPOS>SUBSTRUCTURE
  1 SAM  25 GROUP 4 A **** 0

# MOE 2022.02 (io_trps.svl 2020.11)
