# created with PyMOL 2.5.0
@<TRIPOS>MOLECULE
5EC8
22 23 1                 
SMALL
USER_CHARGES
@<TRIPOS>ATOM
1	   N	25.838	51.599	-7.073	N.pl3	1	5LP302	0.000	
2	   C	25.447	52.221	-2.151	C.3	1	5LP302	0.000	
3	   O	28.197	52.184	-8.145	O.co2	1	5LP302	0.000	
4	  CL	19.002	50.584	-11.382	Cl	1	5LP302	0.000	
5	  C1	26.266	52.269	-3.421	C.2	1	5LP302	0.000	
6	  N1	24.248	51.281	-8.686	N.pl3	1	5LP302	0.000	
7	  O1	29.709	53.264	-6.940	O.co2	1	5LP302	0.000	
8	  C2	27.568	52.758	-3.420	C.2	1	5LP302	0.000	
9	  N2	23.986	49.514	-10.840	N.pl3	1	5LP302	0.000	
10	  O2	23.603	51.673	-6.523	O.2	1	5LP302	0.000	
11	  C3	28.307	52.850	-4.589	C.2	1	5LP302	0.000	
12	  C4	27.754	52.468	-5.815	C.2	1	5LP302	0.000	
13	  C5	28.569	52.631	-7.073	C.2	1	5LP302	0.000	
14	  C6	26.436	51.954	-5.831	C.2	1	5LP302	0.000	
15	  C7	24.493	51.525	-7.359	C.2	1	5LP302	0.000	
16	  C8	22.980	51.114	-9.310	C.2	1	5LP302	0.000	
17	  C9	21.853	51.819	-8.881	C.2	1	5LP302	0.000	
18	 C10	20.627	51.640	-9.506	C.2	1	5LP302	0.000	
19	 C11	20.534	50.768	-10.569	C.2	1	5LP302	0.000	
20	 C12	21.630	50.063	-11.030	C.2	1	5LP302	0.000	
21	 C13	22.874	50.226	-10.400	C.2	1	5LP302	0.000	
22	 C14	25.727	51.852	-4.631	C.2	1	5LP302	0.000	
@<TRIPOS>BOND
1 1 14 1
2 1 15 1
3 2 5 1
4 3 13 ar
5 4 19 1
6 5 8 ar
7 5 22 ar
8 6 15 1
9 6 16 1
10 7 13 ar
11 8 11 ar
12 9 21 1
13 10 15 2
14 11 12 ar
15 12 13 1
16 12 14 ar
17 14 22 ar
18 16 17 ar
19 16 21 ar
20 17 18 ar
21 18 19 ar
22 19 20 ar
23 20 21 ar
@<TRIPOS>SUBSTRUCTURE
1	5LP302	1	GROUP	1 A	5LP
