@<TRIPOS>MOLECULE
5EC8.A
35 36 1 0 0 
SMALL
USER_CHARGES


@<TRIPOS>ATOM
  1 N       25.8380    51.5990    -7.0730 N.am  1 Q5LP  -0.5470 
  2 H       26.4705    51.3767    -7.8284 H     1 Q5LP   0.3700 
  3 C       25.4470    52.2210    -2.1510 C.3   1 Q5LP  -0.0965 
  4 H1      26.0465    52.5882    -1.3180 H     1 Q5LP   0.0800 
  5 H2      25.1420    51.1932    -1.9539 H     1 Q5LP   0.0800 
  6 H3      24.5620    52.8470    -2.2655 H     1 Q5LP   0.0800 
  7 O       28.1970    52.1840    -8.1450 O.co2 1 Q5LP  -0.9000 
  8 CL      19.0020    50.5840   -11.3820 Cl    1 Q5LP  -0.1770 
  9 C1      26.2660    52.2690    -3.4210 C.ar  1 Q5LP  -0.1435 
 10 N1      24.2480    51.2810    -8.6860 N.am  1 Q5LP  -0.5470 
 11 H1      25.0569    51.2122    -9.2869 H     1 Q5LP   0.3700 
 12 O1      29.7090    53.2640    -6.9400 O.co2 1 Q5LP  -0.9000 
 13 C2      27.5680    52.7580    -3.4200 C.ar  1 Q5LP  -0.1500 
 14 H2      28.0131    53.0730    -2.4877 H     1 Q5LP   0.1500 
 15 N2      23.9860    49.5140   -10.8400 N.pl3 1 Q5LP  -0.9000 
 16 H21     23.9012    48.8749   -11.6175 H     1 Q5LP   0.4000 
 17 H22     24.8777    49.6364   -10.3818 H     1 Q5LP   0.4000 
 18 O2      23.6030    51.6730    -6.5230 O.2   1 Q5LP  -0.5700 
 19 C3      28.3070    52.8500    -4.5890 C.ar  1 Q5LP  -0.1500 
 20 H3      29.3207    53.2207    -4.5525 H     1 Q5LP   0.1500 
 21 C4      27.7540    52.4680    -5.8150 C.ar  1 Q5LP  -0.1790 
 22 C5      28.5690    52.6310    -7.0730 C.2   1 Q5LP   0.9790 
 23 C6      26.4360    51.9540    -5.8310 C.ar  1 Q5LP   0.1170 
 24 C7      24.4930    51.5250    -7.3590 C.2   1 Q5LP   0.6900 
 25 C8      22.9800    51.1140    -9.3100 C.ar  1 Q5LP   0.1170 
 26 C9      21.8530    51.8190    -8.8810 C.ar  1 Q5LP  -0.1500 
 27 H9      21.9366    52.5099    -8.0551 H     1 Q5LP   0.1500 
 28 C10     20.6270    51.6400    -9.5060 C.ar  1 Q5LP  -0.1500 
 29 H10     19.7556    52.1780    -9.1632 H     1 Q5LP   0.1500 
 30 C11     20.5340    50.7680   -10.5690 C.ar  1 Q5LP   0.1770 
 31 C12     21.6300    50.0630   -11.0300 C.ar  1 Q5LP  -0.1500 
 32 H12     21.5300    49.3910   -11.8695 H     1 Q5LP   0.1500 
 33 C13     22.8740    50.2260   -10.4000 C.ar  1 Q5LP   0.1000 
 34 C14     25.7270    51.8520    -4.6310 C.ar  1 Q5LP  -0.1500 
 35 H14     24.7302    51.4365    -4.6451 H     1 Q5LP   0.1500 
@<TRIPOS>BOND
  1   1   2  1   
  2   1  23  1   
  3   1  24  am  
  4   3   4  1   
  5   3   5  1   
  6   3   6  1   
  7   3   9  1   
  8   7  22  ar  
  9   8  30  1   
 10   9  13  ar  
 11   9  34  ar  
 12  10  11  1   
 13  10  24  am  
 14  10  25  1   
 15  12  22  ar  
 16  13  14  1   
 17  13  19  ar  
 18  15  16  1   
 19  15  17  1   
 20  15  33  1   
 21  18  24  2   
 22  19  20  1   
 23  19  21  ar  
 24  21  22  1   
 25  21  23  ar  
 26  23  34  ar  
 27  25  26  ar  
 28  25  33  ar  
 29  26  27  1   
 30  26  28  ar  
 31  28  29  1   
 32  28  30  ar  
 33  30  31  ar  
 34  31  32  1   
 35  31  33  ar  
 36  34  35  1   
@<TRIPOS>SUBSTRUCTURE
  1 Q5LP  24 GROUP 4 A **** 0

# MOE 2022.02 (io_trps.svl 2020.11)
