@<TRIPOS>MOLECULE
5EC8.A
51 53 1 0 0 
SMALL
USER_CHARGES


@<TRIPOS>ATOM
  1 N       38.1510    43.9530    -7.1150 N.4   1 SAM  -0.8530 
  2 H1      38.7757    44.3479    -6.4265 H     1 SAM   0.4500 
  3 H2      38.6866    43.6195    -7.9036 H     1 SAM   0.4500 
  4 H3      37.6410    43.1837    -6.7049 H     1 SAM   0.4500 
  5 CA      37.1920    44.9970    -7.5720 C.3   1 SAM   0.3170 
  6 HA      36.5156    44.5752    -8.3154 H     1 SAM   0.0800 
  7 C       37.9520    46.1500    -8.2410 C.2   1 SAM   0.9060 
  8 O       39.1960    46.1000    -8.2440 O.co2 1 SAM  -0.9000 
  9 CB      36.3410    45.4760    -6.3940 C.3   1 SAM  -0.1600 
 10 HB1     35.8754    46.4303    -6.6403 H     1 SAM   0.0800 
 11 HB2     36.9687    45.5952    -5.5109 H     1 SAM   0.0800 
 12 CG      35.2570    44.4260    -6.1210 C.3   1 SAM  -0.1525 
 13 HG1     35.7373    43.4690    -5.9173 H     1 SAM   0.0800 
 14 HG2     34.6250    44.3346    -7.0044 H     1 SAM   0.0800 
 15 SD      34.2390    44.8660    -4.7290 S.3   1 SAM   0.9775 
 16 CE      35.1900    44.6570    -3.2800 C.3   1 SAM  -0.2325 
 17 HE1     35.8720    45.4999    -3.1683 H     1 SAM   0.0800 
 18 HE2     35.7634    43.7328    -3.3519 H     1 SAM   0.0800 
 19 HE3     34.5284    44.6078    -2.4151 H     1 SAM   0.0800 
 20 C5'     33.2600    43.3430    -4.5970 C.3   1 SAM  -0.1525 
 21 H5'1    32.7529    43.3159    -3.6325 H     1 SAM   0.0800 
 22 H5'2    33.9158    42.4770    -4.6871 H     1 SAM   0.0800 
 23 C4'     32.2180    43.3230    -5.7300 C.3   1 SAM   0.2000 
 24 H4'     32.7762    43.4738    -6.6540 H     1 SAM   0.0800 
 25 O4'     31.5130    42.0630    -5.6870 O.3   1 SAM  -0.5600 
 26 C3'     31.1650    44.4350    -5.6410 C.3   1 SAM   0.2000 
 27 H3'     31.3215    45.1114    -4.8007 H     1 SAM   0.0800 
 28 O3'     31.2120    45.2610    -6.7940 O.3   1 SAM  -0.6800 
 29 H3'     30.5116    45.9125    -6.7131 H     1 SAM   0.4000 
 30 C2'     29.8330    43.6780    -5.5160 C.3   1 SAM   0.2000 
 31 H2'     29.4439    43.6488    -4.4982 H     1 SAM   0.0800 
 32 O2'     28.8190    44.3000    -6.3000 O.3   1 SAM  -0.6800 
 33 H2'     29.1355    44.3395    -7.2055 H     1 SAM   0.4000 
 34 C1'     30.1830    42.2980    -6.0840 C.3   1 SAM   0.5691 
 35 H1'     30.0128    42.3233    -7.1603 H     1 SAM   0.0800 
 36 OXT     37.2730    47.0550    -8.7580 O.co2 1 SAM  -0.9000 
 37 N1      27.9630    37.7910    -7.2160 N.2   1 SAM  -0.6610 
 38 C2      28.6910    38.6390    -7.9500 C.2   1 SAM   0.6010 
 39 H2      28.8821    38.3304    -8.9672 H     1 SAM   0.0600 
 40 N3      29.2140    39.8160    -7.5960 N.2   1 SAM  -0.6610 
 41 C4      28.9420    40.1000    -6.3120 C.2   1 SAM   0.5000 
 42 C5      28.2150    39.3170    -5.4260 C.2   1 SAM   0.4500 
 43 C6      27.6910    38.1050    -5.9290 C.2   1 SAM   0.6110 
 44 N6      26.9410    37.2570    -5.2130 N.2   1 SAM  -0.2000 
 45 H62     26.5980    36.4061    -5.6353 H     1 SAM   0.4000 
 46 H61     26.7185    37.4685    -4.2508 H     1 SAM   0.4000 
 47 N7      28.1990    39.8930    -4.1630 N.2   1 SAM  -0.6960 
 48 C8      28.8870    41.0000    -4.3160 C.3   1 SAM   0.4551 
 49 H81     29.7359    40.9729    -3.6329 H     1 SAM   0.0800 
 50 H82     28.2427    41.8416    -4.0617 H     1 SAM   0.0800 
 51 N9      29.3640    41.1910    -5.5900 N.pl3 1 SAM  -0.7882 
@<TRIPOS>BOND
  1   1   2  1   
  2   1   3  1   
  3   1   4  1   
  4   1   5  1   
  5   5   6  1   
  6   5   7  1   
  7   5   9  1   
  8   7   8  ar  
  9   7  36  ar  
 10   9  10  1   
 11   9  11  1   
 12   9  12  1   
 13  12  13  1   
 14  12  14  1   
 15  12  15  1   
 16  15  16  1   
 17  15  20  1   
 18  16  17  1   
 19  16  18  1   
 20  16  19  1   
 21  20  21  1   
 22  20  22  1   
 23  20  23  1   
 24  23  24  1   
 25  23  25  1   
 26  23  26  1   
 27  25  34  1   
 28  26  27  1   
 29  26  28  1   
 30  26  30  1   
 31  28  29  1   
 32  30  31  1   
 33  30  32  1   
 34  30  34  1   
 35  32  33  1   
 36  34  35  1   
 37  34  51  1   
 38  37  38  2   
 39  37  43  1   
 40  38  39  1   
 41  38  40  1   
 42  40  41  2   
 43  41  42  1   
 44  41  51  1   
 45  42  43  1   
 46  42  47  2   
 47  43  44  2   
 48  44  45  1   
 49  44  46  1   
 50  47  48  1   
 51  48  49  1   
 52  48  50  1   
 53  48  51  1   
@<TRIPOS>SUBSTRUCTURE
  1 SAM  25 GROUP 4 A **** 0

# MOE 2022.02 (io_trps.svl 2020.11)
