# created with PyMOL 2.4.0
@<TRIPOS>MOLECULE
temp
50 52 1                 
SMALL
USER_CHARGES
@<TRIPOS>ATOM
1	   N	38.151	43.953	-7.115	N.4	1	SAM1	0.000	
2	  CA	37.192	44.997	-7.572	C.3	1	SAM1	0.000	
3	   C	37.952	46.150	-8.241	C.2	1	SAM1	0.000	
4	   O	39.196	46.100	-8.244	O.co2	1	SAM1	0.000	
5	  CB	36.341	45.476	-6.394	C.3	1	SAM1	0.000	
6	  CG	35.257	44.426	-6.121	C.3	1	SAM1	0.000	
7	  SD	34.239	44.866	-4.729	S.3	1	SAM1	0.000	
8	  CE	35.190	44.657	-3.280	C.3	1	SAM1	0.000	
9	 C5'	33.260	43.343	-4.597	C.3	1	SAM1	0.000	
10	 C4'	32.218	43.323	-5.730	C.3	1	SAM1	0.000	
11	 O4'	31.513	42.063	-5.687	O.3	1	SAM1	0.000	
12	 C3'	31.165	44.435	-5.641	C.3	1	SAM1	0.000	
13	 O3'	31.212	45.261	-6.794	O.3	1	SAM1	0.000	
14	 C2'	29.833	43.678	-5.516	C.3	1	SAM1	0.000	
15	 O2'	28.819	44.300	-6.300	O.3	1	SAM1	0.000	
16	 C1'	30.183	42.298	-6.084	C.3	1	SAM1	0.000	
17	 OXT	37.273	47.055	-8.758	O.co2	1	SAM1	0.000	
18	  N1	27.963	37.791	-7.216	N.2	1	SAM1	0.000	
19	  C2	28.691	38.639	-7.950	C.2	1	SAM1	0.000	
20	  N3	29.214	39.816	-7.596	N.2	1	SAM1	0.000	
21	  C4	28.942	40.100	-6.312	C.2	1	SAM1	0.000	
22	  C5	28.215	39.317	-5.426	C.2	1	SAM1	0.000	
23	  C6	27.691	38.105	-5.929	C.2	1	SAM1	0.000	
24	  N6	26.941	37.257	-5.213	N.pl3	1	SAM1	0.000	
25	  N7	28.199	39.893	-4.163	N.2	1	SAM1	0.000	
26	  C8	28.887	41.000	-4.316	C.2	1	SAM1	0.000	
27	  N9	29.364	41.191	-5.590	N.2	1	SAM1	0.000	
28	  HA	36.516	44.575	-8.315	 H	1	SAM1	0.000	
29	 HB1	35.875	46.430	-6.640	 H	1	SAM1	0.000	
30	 HB2	36.969	45.595	-5.511	 H	1	SAM1	0.000	
31	 HG1	35.737	43.469	-5.917	 H	1	SAM1	0.000	
32	 HG2	34.625	44.335	-7.004	 H	1	SAM1	0.000	
33	 HE1	35.872	45.500	-3.168	 H	1	SAM1	0.000	
34	 HE2	35.763	43.733	-3.352	 H	1	SAM1	0.000	
35	 HE3	34.528	44.608	-2.415	 H	1	SAM1	0.000	
36	  H1	38.776	44.348	-6.426	 H	1	SAM1	0.000	
37	  H2	38.687	43.619	-7.904	 H	1	SAM1	0.000	
38	  H2	28.882	38.330	-8.967	 H	1	SAM1	0.000	
39	  H3	37.641	43.184	-6.705	 H	1	SAM1	0.000	
40	  H8	29.063	41.699	-3.512	 H	1	SAM1	0.000	
41	 H1'	30.013	42.323	-7.160	 H	1	SAM1	0.000	
42	 H2'	29.444	43.649	-4.498	 H	1	SAM1	0.000	
43	 H2'	29.135	44.340	-7.206	 H	1	SAM1	0.000	
44	 H3'	31.322	45.111	-4.801	 H	1	SAM1	0.000	
45	 H3'	30.512	45.912	-6.713	 H	1	SAM1	0.000	
46	 H4'	32.776	43.474	-6.654	 H	1	SAM1	0.000	
47	 H61	26.719	37.468	-4.251	 H	1	SAM1	0.000	
48	 H62	26.598	36.406	-5.635	 H	1	SAM1	0.000	
49	H5'1	32.753	43.316	-3.632	 H	1	SAM1	0.000	
50	H5'2	33.916	42.477	-4.687	 H	1	SAM1	0.000	
@<TRIPOS>BOND
1 1 2 1
2 1 36 1
3 1 37 1
4 1 39 1
5 2 3 1
6 2 5 1
7 2 28 1
8 3 4 ar
9 3 17 ar
10 5 6 1
11 5 29 1
12 5 30 1
13 6 7 1
14 6 31 1
15 6 32 1
16 7 8 1
17 7 9 1
18 8 33 1
19 8 34 1
20 8 35 1
21 9 10 1
22 9 49 1
23 9 50 1
24 10 11 1
25 10 12 1
26 10 46 1
27 11 16 1
28 12 13 1
29 12 14 1
30 12 44 1
31 13 45 1
32 14 15 1
33 14 16 1
34 14 42 1
35 15 43 1
36 16 27 1
37 16 41 1
38 18 19 ar
39 18 23 ar
40 19 20 ar
41 19 38 1
42 20 21 ar
43 21 22 ar
44 21 27 ar
45 22 23 ar
46 22 25 ar
47 23 24 1
48 24 47 1
49 24 48 1
50 25 26 ar
51 26 27 ar
52 26 40 1
@<TRIPOS>SUBSTRUCTURE
1	SAM1	1	GROUP	1 A	SAM
