# created with PyMOL 2.5.0
@<TRIPOS>MOLECULE
5EC8
27 29 1                 
SMALL
USER_CHARGES
@<TRIPOS>ATOM
1	   N	38.151	43.953	-7.115	N.3	1	SAM301	0.000	
2	  CA	37.192	44.997	-7.572	C.3	1	SAM301	0.000	
3	   C	37.952	46.150	-8.241	C.2	1	SAM301	0.000	
4	   O	39.196	46.100	-8.244	O.co2	1	SAM301	0.000	
5	  CB	36.341	45.476	-6.394	C.3	1	SAM301	0.000	
6	  CG	35.257	44.426	-6.121	C.3	1	SAM301	0.000	
7	  SD	34.239	44.866	-4.729	S.3	1	SAM301	0.000	
8	  CE	35.190	44.657	-3.280	C.3	1	SAM301	0.000	
9	 C5'	33.260	43.343	-4.597	C.3	1	SAM301	0.000	
10	 C4'	32.218	43.323	-5.730	C.3	1	SAM301	0.000	
11	 O4'	31.513	42.063	-5.687	O.3	1	SAM301	0.000	
12	 C3'	31.165	44.435	-5.641	C.3	1	SAM301	0.000	
13	 O3'	31.212	45.261	-6.794	O.3	1	SAM301	0.000	
14	 C2'	29.833	43.678	-5.516	C.3	1	SAM301	0.000	
15	 O2'	28.819	44.300	-6.300	O.3	1	SAM301	0.000	
16	 C1'	30.183	42.298	-6.084	C.3	1	SAM301	0.000	
17	 OXT	37.273	47.055	-8.758	O.co2	1	SAM301	0.000	
18	  N1	27.963	37.791	-7.216	N.2	1	SAM301	0.000	
19	  C2	28.691	38.639	-7.950	C.2	1	SAM301	0.000	
20	  N3	29.214	39.816	-7.596	N.2	1	SAM301	0.000	
21	  C4	28.942	40.100	-6.312	C.2	1	SAM301	0.000	
22	  C5	28.215	39.317	-5.426	C.2	1	SAM301	0.000	
23	  C6	27.691	38.105	-5.929	C.2	1	SAM301	0.000	
24	  N6	26.941	37.257	-5.213	N.pl3	1	SAM301	0.000	
25	  N7	28.199	39.893	-4.163	N.2	1	SAM301	0.000	
26	  C8	28.887	41.000	-4.316	C.2	1	SAM301	0.000	
27	  N9	29.364	41.191	-5.590	N.2	1	SAM301	0.000	
@<TRIPOS>BOND
1 1 2 1
2 2 3 1
3 2 5 1
4 3 4 ar
5 3 17 ar
6 5 6 1
7 6 7 1
8 7 8 1
9 7 9 1
10 9 10 1
11 10 11 1
12 10 12 1
13 11 16 1
14 12 13 1
15 12 14 1
16 14 15 1
17 14 16 1
18 16 27 1
19 18 19 ar
20 18 23 ar
21 19 20 ar
22 20 21 ar
23 21 22 ar
24 21 27 ar
25 22 23 ar
26 22 25 ar
27 23 24 1
28 25 26 ar
29 26 27 ar
@<TRIPOS>SUBSTRUCTURE
1	SAM301	1	GROUP	1 A	SAM
