@<TRIPOS>MOLECULE
5FHQ.A
17 17 1 0 0 
SMALL
USER_CHARGES


@<TRIPOS>ATOM
  1 C1      15.2370     8.4650    78.0490 C.ar  1 DNC   0.0825 
  2 N1      13.7690     5.0950    77.1640 N.pl3 1 DNC   0.9070 
  3 O1      16.4260     9.1470    77.8890 O.3   1 DNC  -0.5325 
  4 H1      17.1016     8.6746    77.3971 H     1 DNC   0.4500 
  5 C2      15.1410     7.1400    77.5330 C.ar  1 DNC  -0.1710 
  6 N2      11.8960     8.8540    79.6120 N.pl3 1 DNC   0.9070 
  7 O2      16.1830     6.5880    76.8960 O.3   1 DNC  -0.8290 
  8 C3      13.9330     6.4480    77.7020 C.ar  1 DNC   0.1330 
  9 O3      12.7000     4.5510    77.3540 O.2   1 DNC  -0.5200 
 10 C4      12.8590     7.0180    78.3760 C.ar  1 DNC  -0.1500 
 11 H4      11.9302     6.4799    78.4952 H     1 DNC   0.1500 
 12 O4      14.6480     4.5910    76.5450 O.2   1 DNC  -0.5200 
 13 C5      13.0120     8.2910    78.8890 C.ar  1 DNC   0.1330 
 14 O5      12.0430     9.9530    80.1160 O.2   1 DNC  -0.5200 
 15 C6      14.2060     9.0450    78.7340 C.ar  1 DNC  -0.1500 
 16 H6      14.2959    10.0406    79.1427 H     1 DNC   0.1500 
 17 O6      10.8910     8.1550    79.7280 O.2   1 DNC  -0.5200 
@<TRIPOS>BOND
  1   1   3  1   
  2   1   5  ar  
  3   1  15  ar  
  4   2   8  1   
  5   2   9  2   
  6   2  12  2   
  7   3   4  1   
  8   5   7  1   
  9   5   8  ar  
 10   6  13  1   
 11   6  14  2   
 12   6  17  2   
 13   8  10  ar  
 14  10  11  1   
 15  10  13  ar  
 16  13  15  ar  
 17  15  16  1   
@<TRIPOS>SUBSTRUCTURE
  1 DNC  10 GROUP 4 A **** 0

# MOE 2022.02 (io_trps.svl 2020.11)
