# created with PyMOL 2.5.2
@<TRIPOS>MOLECULE
for_leap
17 17 1                 
SMALL
USER_CHARGES
@<TRIPOS>ATOM
1	  C1	15.237	8.465	78.049	C.2	1	DNC1	0.000	
2	  N1	13.769	5.095	77.164	N.2	1	DNC1	0.000	
3	  O1	16.426	9.147	77.889	O.3	1	DNC1	0.000	
4	  C2	15.141	7.140	77.533	C.2	1	DNC1	0.000	
5	  N2	11.896	8.854	79.612	N.2	1	DNC1	0.000	
6	  O2	16.183	6.588	76.896	O.2	1	DNC1	0.000	
7	  C3	13.933	6.448	77.702	C.2	1	DNC1	0.000	
8	  O3	12.700	4.551	77.354	O.2	1	DNC1	0.000	
9	  C4	12.859	7.018	78.376	C.2	1	DNC1	0.000	
10	  O4	14.648	4.591	76.545	O.2	1	DNC1	0.000	
11	  C5	13.012	8.291	78.889	C.2	1	DNC1	0.000	
12	  O5	12.043	9.953	80.116	O.2	1	DNC1	0.000	
13	  C6	14.206	9.045	78.734	C.2	1	DNC1	0.000	
14	  O6	10.891	8.155	79.728	O.2	1	DNC1	0.000	
15	 H01	16.689	9.534	78.727	 H	1	DNC1	0.000	
16	  H4	11.930	6.480	78.495	 H	1	DNC1	0.000	
17	  H6	14.296	10.041	79.143	 H	1	DNC1	0.000	
@<TRIPOS>BOND
1 1 3 1
2 1 4 ar
3 1 13 ar
4 2 7 1
5 2 8 ar
6 2 10 ar
7 3 15 1
8 4 6 1
9 4 7 ar
10 5 11 1
11 5 12 ar
12 5 14 ar
13 7 9 ar
14 9 11 ar
15 9 16 1
16 11 13 ar
17 13 17 1
@<TRIPOS>SUBSTRUCTURE
1	DNC1	1	GROUP	1 A	DNC
