@<TRIPOS>MOLECULE
5FHQ.A
51 53 1 0 0 
SMALL
USER_CHARGES


@<TRIPOS>ATOM
  1 N       20.0910     6.8550    71.7420 N.4   1 SAM  -0.8530 
  2 H1      20.1681     7.1338    72.7097 H     1 SAM   0.4500 
  3 H2      20.9732     7.0106    71.2755 H     1 SAM   0.4500 
  4 H3      19.8520     5.8750    71.6920 H     1 SAM   0.4500 
  5 CA      19.0230     7.6640    71.0730 C.3   1 SAM   0.3170 
  6 HA      18.9677     7.3376    70.0345 H     1 SAM   0.0800 
  7 C       19.3630     9.2040    71.1200 C.2   1 SAM   0.9060 
  8 O       19.0720     9.8240    70.0940 O.co2 1 SAM  -0.9000 
  9 CB      17.6480     7.4400    71.7840 C.3   1 SAM  -0.1600 
 10 HB1     16.8691     7.9784    71.2440 H     1 SAM   0.0800 
 11 HB2     17.7044     7.8121    72.8070 H     1 SAM   0.0800 
 12 CG      17.3100     5.9310    71.8040 C.3   1 SAM  -0.1525 
 13 HG1     18.0205     5.4035    72.4405 H     1 SAM   0.0800 
 14 HG2     17.3611     5.5294    70.7920 H     1 SAM   0.0800 
 15 SD      15.6280     5.7250    72.4610 S.3   1 SAM   0.9775 
 16 CE      15.8540     6.1520    74.1750 C.3   1 SAM  -0.2325 
 17 HE1     15.9556     7.2331    74.2697 H     1 SAM   0.0800 
 18 HE2     16.7538     5.6679    74.5545 H     1 SAM   0.0800 
 19 HE3     14.9909     5.8164    74.7499 H     1 SAM   0.0800 
 20 C5'     15.5090     3.9030    72.7720 C.3   1 SAM  -0.1525 
 21 H5'1    14.5585     3.7028    73.2665 H     1 SAM   0.0800 
 22 H5'2    16.3287     3.6151    73.4302 H     1 SAM   0.0800 
 23 C4'     15.5860     3.0070    71.4600 C.3   1 SAM   0.2000 
 24 H4'     16.3305     3.5334    70.8628 H     1 SAM   0.0800 
 25 O4'     16.0350     1.6110    71.6490 O.3   1 SAM  -0.5600 
 26 C3'     14.2030     2.8960    70.7820 C.3   1 SAM   0.2000 
 27 H3'     13.3913     3.4424    71.2623 H     1 SAM   0.0800 
 28 O3'     14.3880     3.3780    69.4910 O.3   1 SAM  -0.6800 
 29 H3'     13.5669     3.2462    69.0115 H     1 SAM   0.4000 
 30 C2'     13.9030     1.3690    70.7740 C.3   1 SAM   0.2000 
 31 H2'     13.2713     1.0872    71.6164 H     1 SAM   0.0800 
 32 O2'     13.2380     0.9610    69.5700 O.3   1 SAM  -0.6800 
 33 H2'     13.1202     0.0092    69.6117 H     1 SAM   0.4000 
 34 C1'     15.2930     0.7420    70.7430 C.3   1 SAM   0.5691 
 35 H1'     15.6011     0.6383    69.7026 H     1 SAM   0.0800 
 36 OXT     19.8610     9.6070    72.1960 O.co2 1 SAM  -0.9000 
 37 N1      17.7730    -3.7390    70.5190 N.2   1 SAM  -0.6610 
 38 C2      17.7540    -2.6580    69.7190 C.2   1 SAM   0.6010 
 39 H2      18.4027    -2.7162    68.8575 H     1 SAM   0.0600 
 40 N3      17.0590    -1.5270    69.8250 N.2   1 SAM  -0.6610 
 41 C4      16.2820    -1.5290    70.9370 C.2   1 SAM   0.5000 
 42 C5      16.1770    -2.5760    71.8770 C.2   1 SAM   0.4500 
 43 C6      16.9870    -3.7200    71.6300 C.2   1 SAM   0.6110 
 44 N6      16.9890    -4.8040    72.4290 N.2   1 SAM  -0.2000 
 45 H62     17.5825    -5.5914    72.2104 H     1 SAM   0.4000 
 46 H61     16.3970    -4.8296    73.2469 H     1 SAM   0.4000 
 47 N7      15.2930    -2.2730    72.8960 N.2   1 SAM  -0.6960 
 48 C8      14.8530    -1.0430    72.6060 C.3   1 SAM   0.4551 
 49 H81     15.1374    -0.3668    73.4122 H     1 SAM   0.0800 
 50 H82     13.7668    -1.0677    72.5187 H     1 SAM   0.0800 
 51 N9      15.4170    -0.5500    71.3540 N.pl3 1 SAM  -0.7882 
@<TRIPOS>BOND
  1   1   2  1   
  2   1   3  1   
  3   1   4  1   
  4   1   5  1   
  5   5   6  1   
  6   5   7  1   
  7   5   9  1   
  8   7   8  ar  
  9   7  36  ar  
 10   9  10  1   
 11   9  11  1   
 12   9  12  1   
 13  12  13  1   
 14  12  14  1   
 15  12  15  1   
 16  15  16  1   
 17  15  20  1   
 18  16  17  1   
 19  16  18  1   
 20  16  19  1   
 21  20  21  1   
 22  20  22  1   
 23  20  23  1   
 24  23  24  1   
 25  23  25  1   
 26  23  26  1   
 27  25  34  1   
 28  26  27  1   
 29  26  28  1   
 30  26  30  1   
 31  28  29  1   
 32  30  31  1   
 33  30  32  1   
 34  30  34  1   
 35  32  33  1   
 36  34  35  1   
 37  34  51  1   
 38  37  38  2   
 39  37  43  1   
 40  38  39  1   
 41  38  40  1   
 42  40  41  2   
 43  41  42  1   
 44  41  51  1   
 45  42  43  1   
 46  42  47  2   
 47  43  44  2   
 48  44  45  1   
 49  44  46  1   
 50  47  48  1   
 51  48  49  1   
 52  48  50  1   
 53  48  51  1   
@<TRIPOS>SUBSTRUCTURE
  1 SAM  25 GROUP 4 A **** 0

# MOE 2022.02 (io_trps.svl 2020.11)
