# created with PyMOL 2.4.0
@<TRIPOS>MOLECULE
temp
50 52 1                 
SMALL
USER_CHARGES
@<TRIPOS>ATOM
1	   N	20.091	6.855	71.742	N.4	1	SAM1	0.000	
2	  CA	19.023	7.664	71.073	C.3	1	SAM1	0.000	
3	   C	19.363	9.204	71.120	C.2	1	SAM1	0.000	
4	   O	19.072	9.824	70.094	O.co2	1	SAM1	0.000	
5	  CB	17.648	7.440	71.784	C.3	1	SAM1	0.000	
6	  CG	17.310	5.931	71.804	C.3	1	SAM1	0.000	
7	  SD	15.628	5.725	72.461	S.3	1	SAM1	0.000	
8	  CE	15.854	6.152	74.175	C.3	1	SAM1	0.000	
9	 C5'	15.509	3.903	72.772	C.3	1	SAM1	0.000	
10	 C4'	15.586	3.007	71.460	C.3	1	SAM1	0.000	
11	 O4'	16.035	1.611	71.649	O.3	1	SAM1	0.000	
12	 C3'	14.203	2.896	70.782	C.3	1	SAM1	0.000	
13	 O3'	14.388	3.378	69.491	O.3	1	SAM1	0.000	
14	 C2'	13.903	1.369	70.774	C.3	1	SAM1	0.000	
15	 O2'	13.238	0.961	69.570	O.3	1	SAM1	0.000	
16	 C1'	15.293	0.742	70.743	C.3	1	SAM1	0.000	
17	 OXT	19.861	9.607	72.196	O.co2	1	SAM1	0.000	
18	  N1	17.773	-3.739	70.519	N.2	1	SAM1	0.000	
19	  C2	17.754	-2.658	69.719	C.2	1	SAM1	0.000	
20	  N3	17.059	-1.527	69.825	N.2	1	SAM1	0.000	
21	  C4	16.282	-1.529	70.937	C.2	1	SAM1	0.000	
22	  C5	16.177	-2.576	71.877	C.2	1	SAM1	0.000	
23	  C6	16.987	-3.720	71.630	C.2	1	SAM1	0.000	
24	  N6	16.989	-4.804	72.429	N.pl3	1	SAM1	0.000	
25	  N7	15.293	-2.273	72.896	N.2	1	SAM1	0.000	
26	  C8	14.853	-1.043	72.606	C.2	1	SAM1	0.000	
27	  N9	15.417	-0.550	71.354	N.2	1	SAM1	0.000	
28	  HA	18.968	7.338	70.035	 H	1	SAM1	0.000	
29	 HB1	16.869	7.978	71.244	 H	1	SAM1	0.000	
30	 HB2	17.704	7.812	72.807	 H	1	SAM1	0.000	
31	 HG1	18.021	5.404	72.440	 H	1	SAM1	0.000	
32	 HG2	17.361	5.529	70.792	 H	1	SAM1	0.000	
33	 HE1	15.956	7.233	74.270	 H	1	SAM1	0.000	
34	 HE2	16.754	5.668	74.554	 H	1	SAM1	0.000	
35	 HE3	14.991	5.816	74.750	 H	1	SAM1	0.000	
36	  H1	20.168	7.134	72.710	 H	1	SAM1	0.000	
37	  H2	20.973	7.011	71.275	 H	1	SAM1	0.000	
38	  H2	18.403	-2.716	68.857	 H	1	SAM1	0.000	
39	  H3	19.852	5.875	71.692	 H	1	SAM1	0.000	
40	  H8	14.165	-0.484	73.223	 H	1	SAM1	0.000	
41	 H1'	15.601	0.638	69.703	 H	1	SAM1	0.000	
42	 H2'	13.271	1.087	71.616	 H	1	SAM1	0.000	
43	 H2'	12.393	1.416	69.537	 H	1	SAM1	0.000	
44	 H3'	13.391	3.442	71.262	 H	1	SAM1	0.000	
45	 H3'	13.567	3.246	69.011	 H	1	SAM1	0.000	
46	 H4'	16.330	3.533	70.863	 H	1	SAM1	0.000	
47	 H61	16.397	-4.830	73.247	 H	1	SAM1	0.000	
48	 H62	17.583	-5.591	72.210	 H	1	SAM1	0.000	
49	H5'1	14.559	3.703	73.267	 H	1	SAM1	0.000	
50	H5'2	16.329	3.615	73.430	 H	1	SAM1	0.000	
@<TRIPOS>BOND
1 1 2 1
2 1 36 1
3 1 37 1
4 1 39 1
5 2 3 1
6 2 5 1
7 2 28 1
8 3 4 ar
9 3 17 ar
10 5 6 1
11 5 29 1
12 5 30 1
13 6 7 1
14 6 31 1
15 6 32 1
16 7 8 1
17 7 9 1
18 8 33 1
19 8 34 1
20 8 35 1
21 9 10 1
22 9 49 1
23 9 50 1
24 10 11 1
25 10 12 1
26 10 46 1
27 11 16 1
28 12 13 1
29 12 14 1
30 12 44 1
31 13 45 1
32 14 15 1
33 14 16 1
34 14 42 1
35 15 43 1
36 16 27 1
37 16 41 1
38 18 19 ar
39 18 23 ar
40 19 20 ar
41 19 38 1
42 20 21 ar
43 21 22 ar
44 21 27 ar
45 22 23 ar
46 22 25 ar
47 23 24 1
48 24 47 1
49 24 48 1
50 25 26 ar
51 26 27 ar
52 26 40 1
@<TRIPOS>SUBSTRUCTURE
1	SAM1	1	GROUP	1 A	SAM
