# created with PyMOL 2.5.0
@<TRIPOS>MOLECULE
5FHQ
27 29 1                 
SMALL
USER_CHARGES
@<TRIPOS>ATOM
1	   N	20.091	6.855	71.742	N.3	1	SAM301	0.000	
2	  CA	19.023	7.664	71.073	C.3	1	SAM301	0.000	
3	   C	19.363	9.204	71.120	C.2	1	SAM301	0.000	
4	   O	19.072	9.824	70.094	O.co2	1	SAM301	0.000	
5	  CB	17.648	7.440	71.784	C.3	1	SAM301	0.000	
6	  CG	17.310	5.931	71.804	C.3	1	SAM301	0.000	
7	  SD	15.628	5.725	72.461	S.3	1	SAM301	0.000	
8	  CE	15.854	6.152	74.175	C.3	1	SAM301	0.000	
9	 C5'	15.509	3.903	72.772	C.3	1	SAM301	0.000	
10	 C4'	15.586	3.007	71.460	C.3	1	SAM301	0.000	
11	 O4'	16.035	1.611	71.649	O.3	1	SAM301	0.000	
12	 C3'	14.203	2.896	70.782	C.3	1	SAM301	0.000	
13	 O3'	14.388	3.378	69.491	O.3	1	SAM301	0.000	
14	 C2'	13.903	1.369	70.774	C.3	1	SAM301	0.000	
15	 O2'	13.238	0.961	69.570	O.3	1	SAM301	0.000	
16	 C1'	15.293	0.742	70.743	C.3	1	SAM301	0.000	
17	 OXT	19.861	9.607	72.196	O.co2	1	SAM301	0.000	
18	  N1	17.773	-3.739	70.519	N.2	1	SAM301	0.000	
19	  C2	17.754	-2.658	69.719	C.2	1	SAM301	0.000	
20	  N3	17.059	-1.527	69.825	N.2	1	SAM301	0.000	
21	  C4	16.282	-1.529	70.937	C.2	1	SAM301	0.000	
22	  C5	16.177	-2.576	71.877	C.2	1	SAM301	0.000	
23	  C6	16.987	-3.720	71.630	C.2	1	SAM301	0.000	
24	  N6	16.989	-4.804	72.429	N.pl3	1	SAM301	0.000	
25	  N7	15.293	-2.273	72.896	N.2	1	SAM301	0.000	
26	  C8	14.853	-1.043	72.606	C.2	1	SAM301	0.000	
27	  N9	15.417	-0.550	71.354	N.2	1	SAM301	0.000	
@<TRIPOS>BOND
1 1 2 1
2 2 3 1
3 2 5 1
4 3 4 ar
5 3 17 ar
6 5 6 1
7 6 7 1
8 7 8 1
9 7 9 1
10 9 10 1
11 10 11 1
12 10 12 1
13 11 16 1
14 12 13 1
15 12 14 1
16 14 15 1
17 14 16 1
18 16 27 1
19 18 19 ar
20 18 23 ar
21 19 20 ar
22 20 21 ar
23 21 22 ar
24 21 27 ar
25 22 23 ar
26 22 25 ar
27 23 24 1
28 25 26 ar
29 26 27 ar
@<TRIPOS>SUBSTRUCTURE
1	SAM301	1	GROUP	1 A	SAM
