# created with PyMOL 2.5.0
@<TRIPOS>MOLECULE
5KJK
38 42 1                 
SMALL
USER_CHARGES
@<TRIPOS>ATOM
1	 CL1	-13.230	-66.724	-26.851	Cl	1	6T1506	0.000	
2	 CL2	-13.414	-66.553	-23.673	Cl	1	6T1506	0.000	
3	  C1	-12.630	-56.373	-26.377	C.2	1	6T1506	0.000	
4	  N1	-17.223	-57.278	-27.210	N.2	1	6T1506	0.000	
5	  O1	-17.945	-53.393	-24.187	O.2	1	6T1506	0.000	
6	  C2	-12.224	-57.682	-26.559	C.2	1	6T1506	0.000	
7	  N2	-19.857	-54.535	-23.861	N.pl3	1	6T1506	0.000	
8	  O2	-15.522	-59.346	-26.613	O.3	1	6T1506	0.000	
9	  C3	-13.165	-58.696	-26.684	C.2	1	6T1506	0.000	
10	  N3	-18.027	-54.921	-19.952	N.3	1	6T1506	0.000	
11	  C4	-14.523	-58.385	-26.602	C.2	1	6T1506	0.000	
12	  N4	-17.149	-61.630	-27.550	N.3	1	6T1506	0.000	
13	  C5	-14.958	-57.061	-26.421	C.2	1	6T1506	0.000	
14	  C6	-13.982	-56.063	-26.312	C.2	1	6T1506	0.000	
15	  C7	-16.394	-56.683	-26.333	C.2	1	6T1506	0.000	
16	  C8	-16.848	-55.765	-25.385	C.2	1	6T1506	0.000	
17	  C9	-18.201	-55.444	-25.350	C.2	1	6T1506	0.000	
18	 C10	-19.066	-56.095	-26.219	C.2	1	6T1506	0.000	
19	 C11	-18.537	-56.994	-27.123	C.2	1	6T1506	0.000	
20	 C12	-18.662	-54.361	-24.433	C.2	1	6T1506	0.000	
21	 C13	-20.338	-53.682	-22.786	C.3	1	6T1506	0.000	
22	 C14	-19.944	-54.242	-21.441	C.3	1	6T1506	0.000	
23	 C15	-18.452	-54.538	-21.293	C.3	1	6T1506	0.000	
24	 C16	-18.473	-56.239	-19.477	C.3	1	6T1506	0.000	
25	 C17	-17.568	-56.517	-18.292	C.3	1	6T1506	0.000	
26	 C18	-16.418	-55.560	-18.390	C.3	1	6T1506	0.000	
27	 C19	-16.577	-54.944	-19.757	C.3	1	6T1506	0.000	
28	 C20	-15.854	-60.017	-27.873	C.3	1	6T1506	0.000	
29	 C21	-17.346	-60.255	-28.093	C.3	1	6T1506	0.000	
30	 C22	-15.719	-61.543	-27.830	C.3	1	6T1506	0.000	
31	 C23	-18.022	-62.606	-26.875	C.3	1	6T1506	0.000	
32	 C24	-17.678	-64.072	-27.158	C.3	1	6T1506	0.000	
33	 C25	-16.590	-64.646	-26.276	C.2	1	6T1506	0.000	
34	 C26	-16.709	-64.656	-24.885	C.2	1	6T1506	0.000	
35	 C27	-15.756	-65.271	-24.091	C.2	1	6T1506	0.000	
36	 C28	-14.657	-65.882	-24.682	C.2	1	6T1506	0.000	
37	 C29	-14.536	-65.887	-26.070	C.2	1	6T1506	0.000	
38	 C30	-15.485	-65.261	-26.857	C.2	1	6T1506	0.000	
@<TRIPOS>BOND
1 1 37 1
2 2 36 1
3 3 6 ar
4 3 14 ar
5 4 15 ar
6 4 19 ar
7 5 20 2
8 6 9 ar
9 7 20 1
10 7 21 1
11 8 11 1
12 8 28 1
13 9 11 ar
14 10 23 1
15 10 24 1
16 10 27 1
17 11 13 ar
18 12 29 1
19 12 30 1
20 12 31 1
21 13 14 ar
22 13 15 1
23 15 16 ar
24 16 17 ar
25 17 18 ar
26 17 20 1
27 18 19 ar
28 21 22 1
29 22 23 1
30 24 25 1
31 25 26 1
32 26 27 1
33 28 29 1
34 28 30 1
35 31 32 1
36 32 33 1
37 33 34 ar
38 33 38 ar
39 34 35 ar
40 35 36 ar
41 36 37 ar
42 37 38 ar
@<TRIPOS>SUBSTRUCTURE
1	6T1506	1	GROUP	1 A	6T1
