@<TRIPOS>MOLECULE
5KJK.A
74 78 1 0 0 
SMALL
USER_CHARGES


@<TRIPOS>ATOM
  1 CL1    -13.2300   -66.7240   -26.8510 Cl    1 Q6T  -0.1770 
  2 CL2    -13.4140   -66.5530   -23.6730 Cl    1 Q6T  -0.1770 
  3 C1     -12.6300   -56.3730   -26.3770 C.ar  1 Q6T  -0.1500 
  4 H1     -11.8931   -55.5888   -26.2851 H     1 Q6T   0.1500 
  5 N1     -17.2230   -57.2780   -27.2100 N.ar  1 Q6T  -0.6200 
  6 O1     -17.9450   -53.3930   -24.1870 O.2   1 Q6T  -0.5700 
  7 C2     -12.2240   -57.6820   -26.5590 C.ar  1 Q6T  -0.1500 
  8 H2     -11.1709   -57.9171   -26.6042 H     1 Q6T   0.1500 
  9 N2     -19.8570   -54.5350   -23.8610 N.am  1 Q6T  -0.7301 
 10 H2     -20.4478   -55.2864   -24.1872 H     1 Q6T   0.3700 
 11 O2     -15.5220   -59.3460   -26.6130 O.3   1 Q6T  -0.3404 
 12 C3     -13.1650   -58.6960   -26.6840 C.ar  1 Q6T  -0.1500 
 13 H3     -12.8485   -59.7162   -26.8433 H     1 Q6T   0.1500 
 14 N3     -18.0270   -54.9210   -19.9520 N.4   1 Q6T  -0.9590 
 15 H3     -18.4761   -54.1846   -19.4265 H     1 Q6T   0.4500 
 16 C4     -14.5230   -58.3850   -26.6020 C.ar  1 Q6T   0.0825 
 17 N4     -17.1490   -61.6300   -27.5500 N.4   1 Q6T  -0.8970 
 18 H4     -17.7622   -62.3974   -27.3150 H     1 Q6T   0.4500 
 19 C5     -14.9580   -57.0610   -26.4210 C.ar  1 Q6T   0.0000 
 20 C6     -13.9820   -56.0630   -26.3120 C.ar  1 Q6T  -0.1500 
 21 H6     -14.2856   -55.0356   -26.1752 H     1 Q6T   0.1500 
 22 C7     -16.3940   -56.6830   -26.3330 C.ar  1 Q6T   0.3100 
 23 C8     -16.8480   -55.7650   -25.3850 C.ar  1 Q6T  -0.1500 
 24 H8     -16.1589   -55.3104   -24.6887 H     1 Q6T   0.1500 
 25 C9     -18.2010   -55.4440   -25.3500 C.ar  1 Q6T   0.0862 
 26 C10    -19.0660   -56.0950   -26.2190 C.ar  1 Q6T  -0.1500 
 27 H10    -20.1283   -55.9025   -26.1884 H     1 Q6T   0.1500 
 28 C11    -18.5370   -56.9940   -27.1230 C.ar  1 Q6T   0.1600 
 29 H11    -19.2137   -57.4974   -27.7976 H     1 Q6T   0.1500 
 30 C12    -18.6620   -54.3610   -24.4330 C.2   1 Q6T   0.5438 
 31 C13    -20.3380   -53.6820   -22.7860 C.3   1 Q6T   0.1401 
 32 H131   -21.4246   -53.6158   -22.8412 H     1 Q6T   0.0800 
 33 H132   -19.9072   -52.6872   -22.8991 H     1 Q6T   0.0800 
 34 C14    -19.9440   -54.2420   -21.4410 C.3   1 Q6T  -0.1600 
 35 H141   -20.4930   -55.1705   -21.2842 H     1 Q6T   0.0800 
 36 H142   -20.2259   -53.5195   -20.6751 H     1 Q6T   0.0800 
 37 C15    -18.4520   -54.5380   -21.2930 C.3   1 Q6T   0.3430 
 38 H151   -18.2004   -55.3524   -21.9723 H     1 Q6T   0.0800 
 39 H152   -17.9002   -53.6426   -21.5792 H     1 Q6T   0.0800 
 40 C16    -18.4730   -56.2390   -19.4770 C.3   1 Q6T   0.3430 
 41 H161   -18.3440   -56.9956   -20.2510 H     1 Q6T   0.0800 
 42 H162   -19.5183   -56.2084   -19.1695 H     1 Q6T   0.0800 
 43 C17    -17.5680   -56.5170   -18.2920 C.3   1 Q6T  -0.1600 
 44 H171   -17.2054   -57.5442   -18.3298 H     1 Q6T   0.0800 
 45 H172   -18.1105   -56.3573   -17.3602 H     1 Q6T   0.0800 
 46 C18    -16.4180   -55.5600   -18.3900 C.3   1 Q6T  -0.1600 
 47 H181   -15.4670   -56.0865   -18.3097 H     1 Q6T   0.0800 
 48 H182   -16.4788   -54.7991   -17.6119 H     1 Q6T   0.0800 
 49 C19    -16.5770   -54.9440   -19.7570 C.3   1 Q6T   0.3430 
 50 H191   -16.1642   -53.9355   -19.7808 H     1 Q6T   0.0800 
 51 H192   -16.0907   -55.5537   -20.5185 H     1 Q6T   0.0800 
 52 C20    -15.8540   -60.0170   -27.8730 C.3   1 Q6T   0.2579 
 53 H20    -15.2590   -59.3940   -28.5408 H     1 Q6T   0.0000 
 54 C21    -17.3460   -60.2550   -28.0930 C.3   1 Q6T   0.4720 
 55 H211   -17.9994   -59.6205   -27.4943 H     1 Q6T   0.0000 
 56 H212   -17.6617   -60.2203   -29.1357 H     1 Q6T   0.0000 
 57 C22    -15.7190   -61.5430   -27.8300 C.3   1 Q6T   0.4720 
 58 H221   -15.4174   -61.9947   -28.7751 H     1 Q6T   0.0000 
 59 H222   -15.0804   -61.9156   -27.0291 H     1 Q6T   0.0000 
 60 C23    -18.0220   -62.6060   -26.8750 C.3   1 Q6T   0.3430 
 61 H231   -19.0468   -62.4282   -27.2011 H     1 Q6T   0.0800 
 62 H232   -17.9490   -62.4410   -25.8000 H     1 Q6T   0.0800 
 63 C24    -17.6780   -64.0720   -27.1580 C.3   1 Q6T  -0.0165 
 64 H241   -17.3516   -64.1505   -28.1950 H     1 Q6T   0.0800 
 65 H242   -18.5803   -64.6665   -27.0152 H     1 Q6T   0.0800 
 66 C25    -16.5900   -64.6460   -26.2760 C.ar  1 Q6T  -0.1435 
 67 C26    -16.7090   -64.6560   -24.8850 C.ar  1 Q6T  -0.1500 
 68 H26    -17.5581   -64.1763   -24.4209 H     1 Q6T   0.1500 
 69 C27    -15.7560   -65.2710   -24.0910 C.ar  1 Q6T  -0.1500 
 70 H27    -15.8664   -65.2758   -23.0167 H     1 Q6T   0.1500 
 71 C28    -14.6570   -65.8820   -24.6820 C.ar  1 Q6T   0.1770 
 72 C29    -14.5360   -65.8870   -26.0700 C.ar  1 Q6T   0.1770 
 73 C30    -15.4850   -65.2610   -26.8570 C.ar  1 Q6T  -0.1500 
 74 H30    -15.3679   -65.2492   -27.9306 H     1 Q6T   0.1500 
@<TRIPOS>BOND
  1   1  72  1   
  2   2  71  1   
  3   3   4  1   
  4   3   7  ar  
  5   3  20  ar  
  6   5  22  ar  
  7   5  28  ar  
  8   6  30  2   
  9   7   8  1   
 10   7  12  ar  
 11   9  10  1   
 12   9  30  am  
 13   9  31  1   
 14  11  16  1   
 15  11  52  1   
 16  12  13  1   
 17  12  16  ar  
 18  14  15  1   
 19  14  37  1   
 20  14  40  1   
 21  14  49  1   
 22  16  19  ar  
 23  17  18  1   
 24  17  54  1   
 25  17  57  1   
 26  17  60  1   
 27  19  20  ar  
 28  19  22  1   
 29  20  21  1   
 30  22  23  ar  
 31  23  24  1   
 32  23  25  ar  
 33  25  26  ar  
 34  25  30  1   
 35  26  27  1   
 36  26  28  ar  
 37  28  29  1   
 38  31  32  1   
 39  31  33  1   
 40  31  34  1   
 41  34  35  1   
 42  34  36  1   
 43  34  37  1   
 44  37  38  1   
 45  37  39  1   
 46  40  41  1   
 47  40  42  1   
 48  40  43  1   
 49  43  44  1   
 50  43  45  1   
 51  43  46  1   
 52  46  47  1   
 53  46  48  1   
 54  46  49  1   
 55  49  50  1   
 56  49  51  1   
 57  52  53  1   
 58  52  54  1   
 59  52  57  1   
 60  54  55  1   
 61  54  56  1   
 62  57  58  1   
 63  57  59  1   
 64  60  61  1   
 65  60  62  1   
 66  60  63  1   
 67  63  64  1   
 68  63  65  1   
 69  63  66  1   
 70  66  67  ar  
 71  66  73  ar  
 72  67  68  1   
 73  67  69  ar  
 74  69  70  1   
 75  69  71  ar  
 76  71  72  ar  
 77  72  73  ar  
 78  73  74  1   
@<TRIPOS>SUBSTRUCTURE
  1 Q6T  11 GROUP 4 A **** 0

# MOE 2022.02 (io_trps.svl 2020.11)
