@<TRIPOS>MOLECULE
5KJK.A
51 53 1 0 0 
SMALL
USER_CHARGES


@<TRIPOS>ATOM
  1 N      -16.9270   -60.0920   -10.4890 N.4   1 SAM  -0.8530 
  2 H1     -16.8442   -59.4804    -9.6895 H     1 SAM   0.4500 
  3 H2     -16.9229   -61.0534   -10.1794 H     1 SAM   0.4500 
  4 H3     -17.7919   -59.8979   -10.9732 H     1 SAM   0.4500 
  5 CA     -15.7880   -59.8640   -11.4040 C.3   1 SAM   0.3170 
  6 HA     -15.9192   -60.5420   -12.2473 H     1 SAM   0.0800 
  7 C      -14.3920   -60.2380   -10.7560 C.2   1 SAM   0.9060 
  8 O      -14.4070   -60.7680    -9.6200 O.co2 1 SAM  -0.9000 
  9 CB     -15.7960   -58.4120   -11.9410 C.3   1 SAM  -0.1600 
 10 HB1    -14.7750   -58.1257   -12.1932 H     1 SAM   0.0800 
 11 HB2    -16.1764   -57.7519   -11.1615 H     1 SAM   0.0800 
 12 CG     -16.6690   -58.2600   -13.1820 C.3   1 SAM  -0.1525 
 13 HG1    -16.7647   -57.2031   -13.4307 H     1 SAM   0.0800 
 14 HG2    -17.6562   -58.6775   -12.9841 H     1 SAM   0.0800 
 15 SD     -15.9110   -59.1390   -14.5710 S.3   1 SAM   0.9775 
 16 CE     -15.8620   -57.9630   -15.8270 C.3   1 SAM  -0.2325 
 17 HE1    -15.0555   -57.2562   -15.6317 H     1 SAM   0.0800 
 18 HE2    -16.8119   -57.4296   -15.8626 H     1 SAM   0.0800 
 19 HE3    -15.6875   -58.4585   -16.7821 H     1 SAM   0.0800 
 20 C5'    -17.2890   -60.0560   -15.2300 C.3   1 SAM  -0.1525 
 21 H5'1   -17.0730   -60.2978   -16.2706 H     1 SAM   0.0800 
 22 H5'2   -18.1758   -59.4241   -15.1804 H     1 SAM   0.0800 
 23 C4'    -17.5840   -61.3530   -14.4890 C.3   1 SAM   0.2000 
 24 H4'    -16.6139   -61.8454   -14.4217 H     1 SAM   0.0800 
 25 O4'    -18.1930   -61.0740   -13.2070 O.3   1 SAM  -0.5600 
 26 C3'    -18.5830   -62.2570   -15.1890 C.3   1 SAM   0.2000 
 27 H3'    -19.3877   -61.7445   -15.7162 H     1 SAM   0.0800 
 28 O3'    -18.0030   -62.9710   -16.2710 O.3   1 SAM  -0.6800 
 29 H3'    -18.6786   -63.5493   -16.6326 H     1 SAM   0.4000 
 30 C2'    -19.1450   -63.0800   -14.0280 C.3   1 SAM   0.2000 
 31 H2'    -20.0815   -63.5704   -14.2937 H     1 SAM   0.0800 
 32 O2'    -18.3070   -64.1480   -13.6050 O.3   1 SAM  -0.6800 
 33 H2'    -18.2152   -64.7548   -14.3432 H     1 SAM   0.4000 
 34 C1'    -19.2100   -62.0200   -12.9240 C.3   1 SAM   0.5691 
 35 H1'    -19.0787   -62.5289   -11.9691 H     1 SAM   0.0800 
 36 OXT    -13.3690   -60.0210   -11.4360 O.co2 1 SAM  -0.9000 
 37 N1     -24.1180   -62.2710   -11.3440 N.2   1 SAM  -0.6610 
 38 C2     -23.1290   -63.1760   -11.3400 C.2   1 SAM   0.6010 
 39 H2     -23.3849   -64.1457   -10.9393 H     1 SAM   0.0600 
 40 N3     -21.8660   -63.0400   -11.7660 N.2   1 SAM  -0.6610 
 41 C4     -21.6520   -61.8130   -12.2640 C.2   1 SAM   0.5000 
 42 C5     -22.5760   -60.7790   -12.3480 C.2   1 SAM   0.4500 
 43 C6     -23.8710   -61.0370   -11.8390 C.2   1 SAM   0.6110 
 44 N6     -24.8490   -60.1240   -11.7860 N.2   1 SAM  -0.2000 
 45 H62    -25.7527   -60.3732   -11.4101 H     1 SAM   0.4000 
 46 H61    -24.6830   -59.1861   -12.1219 H     1 SAM   0.4000 
 47 N7     -22.0130   -59.6670   -12.9530 N.2   1 SAM  -0.6960 
 48 C8     -20.7840   -60.0450   -13.2160 C.3   1 SAM   0.4551 
 49 H81    -20.1007   -59.3642   -12.7083 H     1 SAM   0.0800 
 50 H82    -20.6290   -59.9792   -14.2929 H     1 SAM   0.0800 
 51 N9     -20.4930   -61.3230   -12.8170 N.pl3 1 SAM  -0.7882 
@<TRIPOS>BOND
  1   1   2  1   
  2   1   3  1   
  3   1   4  1   
  4   1   5  1   
  5   5   6  1   
  6   5   7  1   
  7   5   9  1   
  8   7   8  ar  
  9   7  36  ar  
 10   9  10  1   
 11   9  11  1   
 12   9  12  1   
 13  12  13  1   
 14  12  14  1   
 15  12  15  1   
 16  15  16  1   
 17  15  20  1   
 18  16  17  1   
 19  16  18  1   
 20  16  19  1   
 21  20  21  1   
 22  20  22  1   
 23  20  23  1   
 24  23  24  1   
 25  23  25  1   
 26  23  26  1   
 27  25  34  1   
 28  26  27  1   
 29  26  28  1   
 30  26  30  1   
 31  28  29  1   
 32  30  31  1   
 33  30  32  1   
 34  30  34  1   
 35  32  33  1   
 36  34  35  1   
 37  34  51  1   
 38  37  38  2   
 39  37  43  1   
 40  38  39  1   
 41  38  40  1   
 42  40  41  2   
 43  41  42  1   
 44  41  51  1   
 45  42  43  1   
 46  42  47  2   
 47  43  44  2   
 48  44  45  1   
 49  44  46  1   
 50  47  48  1   
 51  48  49  1   
 52  48  50  1   
 53  48  51  1   
@<TRIPOS>SUBSTRUCTURE
  1 SAM  25 GROUP 4 A **** 0

# MOE 2022.02 (io_trps.svl 2020.11)
