# created with PyMOL 2.4.0
@<TRIPOS>MOLECULE
temp
50 52 1                 
SMALL
USER_CHARGES
@<TRIPOS>ATOM
1	   N	-16.927	-60.092	-10.489	N.4	1	SAM1	0.000	
2	  CA	-15.788	-59.864	-11.404	C.3	1	SAM1	0.000	
3	   C	-14.392	-60.238	-10.756	C.2	1	SAM1	0.000	
4	   O	-14.407	-60.768	-9.620	O.co2	1	SAM1	0.000	
5	  CB	-15.796	-58.412	-11.941	C.3	1	SAM1	0.000	
6	  CG	-16.669	-58.260	-13.182	C.3	1	SAM1	0.000	
7	  SD	-15.911	-59.139	-14.571	S.3	1	SAM1	0.000	
8	  CE	-15.862	-57.963	-15.827	C.3	1	SAM1	0.000	
9	 C5'	-17.289	-60.056	-15.230	C.3	1	SAM1	0.000	
10	 C4'	-17.584	-61.353	-14.489	C.3	1	SAM1	0.000	
11	 O4'	-18.193	-61.074	-13.207	O.3	1	SAM1	0.000	
12	 C3'	-18.583	-62.257	-15.189	C.3	1	SAM1	0.000	
13	 O3'	-18.003	-62.971	-16.271	O.3	1	SAM1	0.000	
14	 C2'	-19.145	-63.080	-14.028	C.3	1	SAM1	0.000	
15	 O2'	-18.307	-64.148	-13.605	O.3	1	SAM1	0.000	
16	 C1'	-19.210	-62.020	-12.924	C.3	1	SAM1	0.000	
17	 OXT	-13.369	-60.021	-11.436	O.co2	1	SAM1	0.000	
18	  N1	-24.118	-62.271	-11.344	N.2	1	SAM1	0.000	
19	  C2	-23.129	-63.176	-11.340	C.2	1	SAM1	0.000	
20	  N3	-21.866	-63.040	-11.766	N.2	1	SAM1	0.000	
21	  C4	-21.652	-61.813	-12.264	C.2	1	SAM1	0.000	
22	  C5	-22.576	-60.779	-12.348	C.2	1	SAM1	0.000	
23	  C6	-23.871	-61.037	-11.839	C.2	1	SAM1	0.000	
24	  N6	-24.849	-60.124	-11.786	N.pl3	1	SAM1	0.000	
25	  N7	-22.013	-59.667	-12.953	N.2	1	SAM1	0.000	
26	  C8	-20.784	-60.045	-13.216	C.2	1	SAM1	0.000	
27	  N9	-20.493	-61.323	-12.817	N.2	1	SAM1	0.000	
28	  HA	-15.919	-60.542	-12.247	 H	1	SAM1	0.000	
29	 HB1	-14.775	-58.126	-12.193	 H	1	SAM1	0.000	
30	 HB2	-16.176	-57.752	-11.161	 H	1	SAM1	0.000	
31	 HG1	-16.765	-57.203	-13.431	 H	1	SAM1	0.000	
32	 HG2	-17.656	-58.678	-12.984	 H	1	SAM1	0.000	
33	 HE1	-15.056	-57.256	-15.632	 H	1	SAM1	0.000	
34	 HE2	-16.812	-57.430	-15.863	 H	1	SAM1	0.000	
35	 HE3	-15.688	-58.458	-16.782	 H	1	SAM1	0.000	
36	  H1	-16.844	-59.480	-9.689	 H	1	SAM1	0.000	
37	  H2	-16.923	-61.053	-10.179	 H	1	SAM1	0.000	
38	  H2	-23.385	-64.146	-10.939	 H	1	SAM1	0.000	
39	  H3	-17.792	-59.898	-10.973	 H	1	SAM1	0.000	
40	  H8	-20.065	-59.404	-13.704	 H	1	SAM1	0.000	
41	 H1'	-19.079	-62.529	-11.969	 H	1	SAM1	0.000	
42	 H2'	-20.081	-63.570	-14.294	 H	1	SAM1	0.000	
43	 H2'	-18.215	-64.755	-14.343	 H	1	SAM1	0.000	
44	 H3'	-19.388	-61.744	-15.716	 H	1	SAM1	0.000	
45	 H3'	-18.679	-63.549	-16.633	 H	1	SAM1	0.000	
46	 H4'	-16.614	-61.845	-14.422	 H	1	SAM1	0.000	
47	 H61	-24.683	-59.186	-12.122	 H	1	SAM1	0.000	
48	 H62	-25.753	-60.373	-11.410	 H	1	SAM1	0.000	
49	H5'1	-17.073	-60.298	-16.271	 H	1	SAM1	0.000	
50	H5'2	-18.176	-59.424	-15.180	 H	1	SAM1	0.000	
@<TRIPOS>BOND
1 1 2 1
2 1 36 1
3 1 37 1
4 1 39 1
5 2 3 1
6 2 5 1
7 2 28 1
8 3 4 ar
9 3 17 ar
10 5 6 1
11 5 29 1
12 5 30 1
13 6 7 1
14 6 31 1
15 6 32 1
16 7 8 1
17 7 9 1
18 8 33 1
19 8 34 1
20 8 35 1
21 9 10 1
22 9 49 1
23 9 50 1
24 10 11 1
25 10 12 1
26 10 46 1
27 11 16 1
28 12 13 1
29 12 14 1
30 12 44 1
31 13 45 1
32 14 15 1
33 14 16 1
34 14 42 1
35 15 43 1
36 16 27 1
37 16 41 1
38 18 19 ar
39 18 23 ar
40 19 20 ar
41 19 38 1
42 20 21 ar
43 21 22 ar
44 21 27 ar
45 22 23 ar
46 22 25 ar
47 23 24 1
48 24 47 1
49 24 48 1
50 25 26 ar
51 26 27 ar
52 26 40 1
@<TRIPOS>SUBSTRUCTURE
1	SAM1	1	GROUP	1 A	SAM
