# created with PyMOL 2.5.0
@<TRIPOS>MOLECULE
5KJK
27 29 1                 
SMALL
USER_CHARGES
@<TRIPOS>ATOM
1	   N	-16.927	-60.092	-10.489	N.3	1	SAM501	0.000	
2	  CA	-15.788	-59.864	-11.404	C.3	1	SAM501	0.000	
3	   C	-14.392	-60.238	-10.756	C.2	1	SAM501	0.000	
4	   O	-14.407	-60.768	-9.620	O.co2	1	SAM501	0.000	
5	  CB	-15.796	-58.412	-11.941	C.3	1	SAM501	0.000	
6	  CG	-16.669	-58.260	-13.182	C.3	1	SAM501	0.000	
7	  SD	-15.911	-59.139	-14.571	S.3	1	SAM501	0.000	
8	  CE	-15.862	-57.963	-15.827	C.3	1	SAM501	0.000	
9	 C5'	-17.289	-60.056	-15.230	C.3	1	SAM501	0.000	
10	 C4'	-17.584	-61.353	-14.489	C.3	1	SAM501	0.000	
11	 O4'	-18.193	-61.074	-13.207	O.3	1	SAM501	0.000	
12	 C3'	-18.583	-62.257	-15.189	C.3	1	SAM501	0.000	
13	 O3'	-18.003	-62.971	-16.271	O.3	1	SAM501	0.000	
14	 C2'	-19.145	-63.080	-14.028	C.3	1	SAM501	0.000	
15	 O2'	-18.307	-64.148	-13.605	O.3	1	SAM501	0.000	
16	 C1'	-19.210	-62.020	-12.924	C.3	1	SAM501	0.000	
17	 OXT	-13.369	-60.021	-11.436	O.co2	1	SAM501	0.000	
18	  N1	-24.118	-62.271	-11.344	N.2	1	SAM501	0.000	
19	  C2	-23.129	-63.176	-11.340	C.2	1	SAM501	0.000	
20	  N3	-21.866	-63.040	-11.766	N.2	1	SAM501	0.000	
21	  C4	-21.652	-61.813	-12.264	C.2	1	SAM501	0.000	
22	  C5	-22.576	-60.779	-12.348	C.2	1	SAM501	0.000	
23	  C6	-23.871	-61.037	-11.839	C.2	1	SAM501	0.000	
24	  N6	-24.849	-60.124	-11.786	N.pl3	1	SAM501	0.000	
25	  N7	-22.013	-59.667	-12.953	N.2	1	SAM501	0.000	
26	  C8	-20.784	-60.045	-13.216	C.2	1	SAM501	0.000	
27	  N9	-20.493	-61.323	-12.817	N.2	1	SAM501	0.000	
@<TRIPOS>BOND
1 1 2 1
2 2 3 1
3 2 5 1
4 3 4 ar
5 3 17 ar
6 5 6 1
7 6 7 1
8 7 8 1
9 7 9 1
10 9 10 1
11 10 11 1
12 10 12 1
13 11 16 1
14 12 13 1
15 12 14 1
16 14 15 1
17 14 16 1
18 16 27 1
19 18 19 ar
20 18 23 ar
21 19 20 ar
22 20 21 ar
23 21 22 ar
24 21 27 ar
25 22 23 ar
26 22 25 ar
27 23 24 1
28 25 26 ar
29 26 27 ar
@<TRIPOS>SUBSTRUCTURE
1	SAM501	1	GROUP	1 A	SAM
