@<TRIPOS>MOLECULE
6W61.A
51 53 1 0 0 
SMALL
USER_CHARGES


@<TRIPOS>ATOM
  1 N      -59.5910    65.2290     1.4230 N.4   1 SAM  -0.8530 
  2 H1     -60.2667    64.6137     0.9930 H     1 SAM   0.4500 
  3 H2     -59.6285    65.1216     2.4266 H     1 SAM   0.4500 
  4 H3     -58.6653    64.9951     1.0938 H     1 SAM   0.4500 
  5 CA     -59.8980    66.6110     1.0700 C.3   1 SAM   0.3170 
  6 HA     -59.1528    67.2466     1.5483 H     1 SAM   0.0800 
  7 C      -61.2640    67.0470     1.5920 C.2   1 SAM   0.9060 
  8 O      -61.7570    66.5230     2.5910 O.co2 1 SAM  -0.9000 
  9 CB     -59.8220    66.7940    -0.4420 C.3   1 SAM  -0.1600 
 10 HB1    -59.3462    67.7531    -0.6463 H     1 SAM   0.0800 
 11 HB2    -60.8381    66.8012    -0.8365 H     1 SAM   0.0800 
 12 CG     -59.0360    65.7070    -1.1670 C.3   1 SAM  -0.1525 
 13 HG1    -59.6262    64.7906    -1.1717 H     1 SAM   0.0800 
 14 HG2    -58.1012    65.5344    -0.6336 H     1 SAM   0.0800 
 15 SD     -58.6560    66.1650    -2.8770 S.3   1 SAM   0.9775 
 16 CE     -59.8190    65.0800    -3.7350 C.3   1 SAM  -0.2325 
 17 HE1    -60.8269    65.4855    -3.6468 H     1 SAM   0.0800 
 18 HE2    -59.7867    64.0865    -3.2878 H     1 SAM   0.0800 
 19 HE3    -59.5449    65.0136    -4.7879 H     1 SAM   0.0800 
 20 C5'    -57.1210    65.2550    -3.1920 C.3   1 SAM  -0.1525 
 21 H5'1   -56.9705    65.1902    -4.2696 H     1 SAM   0.0800 
 22 H5'2   -57.2209    64.2516    -2.7782 H     1 SAM   0.0800 
 23 C4'    -55.9000    65.9160    -2.5710 C.3   1 SAM   0.2000 
 24 H4'    -56.1376    66.0881    -1.5212 H     1 SAM   0.0800 
 25 O4'    -54.7610    65.0850    -2.6970 O.3   1 SAM  -0.5600 
 26 C3'    -55.5760    67.2330    -3.2590 C.3   1 SAM   0.2000 
 27 H3'    -56.1975    67.4074    -4.1373 H     1 SAM   0.0800 
 28 O3'    -55.7880    68.2940    -2.3590 O.3   1 SAM  -0.6800 
 29 H3'    -55.5370    69.1067    -2.8041 H     1 SAM   0.4000 
 30 C2'    -54.1070    67.1450    -3.6140 C.3   1 SAM   0.2000 
 31 H2'    -53.9367    67.0949    -4.6894 H     1 SAM   0.0800 
 32 O2'    -53.4230    68.2810    -3.1440 O.3   1 SAM  -0.6800 
 33 H2'    -53.5665    68.3348    -2.1963 H     1 SAM   0.4000 
 34 C1'    -53.6240    65.9040    -2.8820 C.3   1 SAM   0.5691 
 35 H1'    -53.1848    66.1615    -1.9182 H     1 SAM   0.0800 
 36 OXT    -61.8980    67.9460     1.0380 O.co2 1 SAM  -0.9000 
 37 N1     -48.7460    64.0530    -2.5240 N.2   1 SAM  -0.6610 
 38 C2     -49.5010    64.6750    -1.5490 C.2   1 SAM   0.6010 
 39 H2     -49.0868    64.8293    -0.5636 H     1 SAM   0.0600 
 40 N3     -50.7840    65.1000    -1.8310 N.2   1 SAM  -0.6610 
 41 C4     -51.3120    64.9090    -3.0660 C.2   1 SAM   0.5000 
 42 C5     -50.5690    64.2870    -4.0580 C.2   1 SAM   0.4500 
 43 C6     -49.2770    63.8560    -3.7830 C.2   1 SAM   0.6110 
 44 N6     -48.5590    63.2590    -4.7300 N.2   1 SAM  -0.2000 
 45 H62    -47.6199    62.9458    -4.5298 H     1 SAM   0.4000 
 46 H61    -48.9528    63.1188    -5.6494 H     1 SAM   0.4000 
 47 N7     -51.3320    64.2300    -5.1730 N.2   1 SAM  -0.6960 
 48 C8     -52.5320    64.8000    -4.9110 C.3   1 SAM   0.4551 
 49 H81    -53.3275    64.0705    -5.0630 H     1 SAM   0.0800 
 50 H82    -52.6882    65.6512    -5.5737 H     1 SAM   0.0800 
 51 N9     -52.5330    65.2220    -3.6060 N.pl3 1 SAM  -0.7882 
@<TRIPOS>BOND
  1   1   2  1   
  2   1   3  1   
  3   1   4  1   
  4   1   5  1   
  5   5   6  1   
  6   5   7  1   
  7   5   9  1   
  8   7   8  ar  
  9   7  36  ar  
 10   9  10  1   
 11   9  11  1   
 12   9  12  1   
 13  12  13  1   
 14  12  14  1   
 15  12  15  1   
 16  15  16  1   
 17  15  20  1   
 18  16  17  1   
 19  16  18  1   
 20  16  19  1   
 21  20  21  1   
 22  20  22  1   
 23  20  23  1   
 24  23  24  1   
 25  23  25  1   
 26  23  26  1   
 27  25  34  1   
 28  26  27  1   
 29  26  28  1   
 30  26  30  1   
 31  28  29  1   
 32  30  31  1   
 33  30  32  1   
 34  30  34  1   
 35  32  33  1   
 36  34  35  1   
 37  34  51  1   
 38  37  38  2   
 39  37  43  1   
 40  38  39  1   
 41  38  40  1   
 42  40  41  2   
 43  41  42  1   
 44  41  51  1   
 45  42  43  1   
 46  42  47  2   
 47  43  44  2   
 48  44  45  1   
 49  44  46  1   
 50  47  48  1   
 51  48  49  1   
 52  48  50  1   
 53  48  51  1   
@<TRIPOS>SUBSTRUCTURE
  1 SAM  25 GROUP 4 A **** 0

# MOE 2022.02 (io_trps.svl 2020.11)
