# created with PyMOL 2.5.0
@<TRIPOS>MOLECULE
6W61
27 29 1                 
SMALL
USER_CHARGES
@<TRIPOS>ATOM
1	   N	-59.591	65.229	1.423	N.3	1	SAM7104	0.000	
2	  CA	-59.898	66.611	1.070	C.3	1	SAM7104	0.000	
3	   C	-61.264	67.047	1.592	C.2	1	SAM7104	0.000	
4	   O	-61.757	66.523	2.591	O.co2	1	SAM7104	0.000	
5	  CB	-59.822	66.794	-0.442	C.3	1	SAM7104	0.000	
6	  CG	-59.036	65.707	-1.167	C.3	1	SAM7104	0.000	
7	  SD	-58.656	66.165	-2.877	S.3	1	SAM7104	0.000	
8	  CE	-59.819	65.080	-3.735	C.3	1	SAM7104	0.000	
9	 C5'	-57.121	65.255	-3.192	C.3	1	SAM7104	0.000	
10	 C4'	-55.900	65.916	-2.571	C.3	1	SAM7104	0.000	
11	 O4'	-54.761	65.085	-2.697	O.3	1	SAM7104	0.000	
12	 C3'	-55.576	67.233	-3.259	C.3	1	SAM7104	0.000	
13	 O3'	-55.788	68.294	-2.359	O.3	1	SAM7104	0.000	
14	 C2'	-54.107	67.145	-3.614	C.3	1	SAM7104	0.000	
15	 O2'	-53.423	68.281	-3.144	O.3	1	SAM7104	0.000	
16	 C1'	-53.624	65.904	-2.882	C.3	1	SAM7104	0.000	
17	 OXT	-61.898	67.946	1.038	O.co2	1	SAM7104	0.000	
18	  N1	-48.746	64.053	-2.524	N.2	1	SAM7104	0.000	
19	  C2	-49.501	64.675	-1.549	C.2	1	SAM7104	0.000	
20	  N3	-50.784	65.100	-1.831	N.2	1	SAM7104	0.000	
21	  C4	-51.312	64.909	-3.066	C.2	1	SAM7104	0.000	
22	  C5	-50.569	64.287	-4.058	C.2	1	SAM7104	0.000	
23	  C6	-49.277	63.856	-3.783	C.2	1	SAM7104	0.000	
24	  N6	-48.559	63.259	-4.730	N.pl3	1	SAM7104	0.000	
25	  N7	-51.332	64.230	-5.173	N.2	1	SAM7104	0.000	
26	  C8	-52.532	64.800	-4.911	C.2	1	SAM7104	0.000	
27	  N9	-52.533	65.222	-3.606	N.2	1	SAM7104	0.000	
@<TRIPOS>BOND
1 1 2 1
2 2 3 1
3 2 5 1
4 3 4 ar
5 3 17 ar
6 5 6 1
7 6 7 1
8 7 8 1
9 7 9 1
10 9 10 1
11 10 11 1
12 10 12 1
13 11 16 1
14 12 13 1
15 12 14 1
16 14 15 1
17 14 16 1
18 16 27 1
19 18 19 ar
20 18 23 ar
21 19 20 ar
22 20 21 ar
23 21 22 ar
24 21 27 ar
25 22 23 ar
26 22 25 ar
27 23 24 1
28 25 26 ar
29 26 27 ar
@<TRIPOS>SUBSTRUCTURE
1	SAM7104	1	GROUP	1 A	SAM
