# created with PyMOL 2.4.0
@<TRIPOS>MOLECULE
temp
50 52 1                 
SMALL
USER_CHARGES
@<TRIPOS>ATOM
1	   N	-59.591	65.229	1.423	N.4	1	SAM1	0.000	
2	  CA	-59.898	66.611	1.070	C.3	1	SAM1	0.000	
3	   C	-61.264	67.047	1.592	C.2	1	SAM1	0.000	
4	   O	-61.757	66.523	2.591	O.co2	1	SAM1	0.000	
5	  CB	-59.822	66.794	-0.442	C.3	1	SAM1	0.000	
6	  CG	-59.036	65.707	-1.167	C.3	1	SAM1	0.000	
7	  SD	-58.656	66.165	-2.877	S.3	1	SAM1	0.000	
8	  CE	-59.819	65.080	-3.735	C.3	1	SAM1	0.000	
9	 C5'	-57.121	65.255	-3.192	C.3	1	SAM1	0.000	
10	 C4'	-55.900	65.916	-2.571	C.3	1	SAM1	0.000	
11	 O4'	-54.761	65.085	-2.697	O.3	1	SAM1	0.000	
12	 C3'	-55.576	67.233	-3.259	C.3	1	SAM1	0.000	
13	 O3'	-55.788	68.294	-2.359	O.3	1	SAM1	0.000	
14	 C2'	-54.107	67.145	-3.614	C.3	1	SAM1	0.000	
15	 O2'	-53.423	68.281	-3.144	O.3	1	SAM1	0.000	
16	 C1'	-53.624	65.904	-2.882	C.3	1	SAM1	0.000	
17	 OXT	-61.898	67.946	1.038	O.co2	1	SAM1	0.000	
18	  N1	-48.746	64.053	-2.524	N.2	1	SAM1	0.000	
19	  C2	-49.501	64.675	-1.549	C.2	1	SAM1	0.000	
20	  N3	-50.784	65.100	-1.831	N.2	1	SAM1	0.000	
21	  C4	-51.312	64.909	-3.066	C.2	1	SAM1	0.000	
22	  C5	-50.569	64.287	-4.058	C.2	1	SAM1	0.000	
23	  C6	-49.277	63.856	-3.783	C.2	1	SAM1	0.000	
24	  N6	-48.559	63.259	-4.730	N.pl3	1	SAM1	0.000	
25	  N7	-51.332	64.230	-5.173	N.2	1	SAM1	0.000	
26	  C8	-52.532	64.800	-4.911	C.2	1	SAM1	0.000	
27	  N9	-52.533	65.222	-3.606	N.2	1	SAM1	0.000	
28	  HA	-59.153	67.247	1.548	 H	1	SAM1	0.000	
29	 HB1	-59.346	67.753	-0.646	 H	1	SAM1	0.000	
30	 HB2	-60.838	66.801	-0.836	 H	1	SAM1	0.000	
31	 HG1	-59.626	64.791	-1.172	 H	1	SAM1	0.000	
32	 HG2	-58.101	65.534	-0.634	 H	1	SAM1	0.000	
33	 HE1	-60.827	65.485	-3.647	 H	1	SAM1	0.000	
34	 HE2	-59.787	64.087	-3.288	 H	1	SAM1	0.000	
35	 HE3	-59.545	65.014	-4.788	 H	1	SAM1	0.000	
36	  H1	-60.267	64.614	0.993	 H	1	SAM1	0.000	
37	  H2	-59.629	65.122	2.427	 H	1	SAM1	0.000	
38	  H2	-49.087	64.829	-0.564	 H	1	SAM1	0.000	
39	  H3	-58.665	64.995	1.094	 H	1	SAM1	0.000	
40	  H8	-53.349	64.904	-5.610	 H	1	SAM1	0.000	
41	 H1'	-53.185	66.161	-1.918	 H	1	SAM1	0.000	
42	 H2'	-53.937	67.095	-4.689	 H	1	SAM1	0.000	
43	 H2'	-53.567	68.335	-2.196	 H	1	SAM1	0.000	
44	 H3'	-56.197	67.407	-4.137	 H	1	SAM1	0.000	
45	 H3'	-55.537	69.107	-2.804	 H	1	SAM1	0.000	
46	 H4'	-56.138	66.088	-1.521	 H	1	SAM1	0.000	
47	 H61	-48.953	63.119	-5.649	 H	1	SAM1	0.000	
48	 H62	-47.620	62.946	-4.530	 H	1	SAM1	0.000	
49	H5'1	-56.971	65.190	-4.270	 H	1	SAM1	0.000	
50	H5'2	-57.221	64.252	-2.778	 H	1	SAM1	0.000	
@<TRIPOS>BOND
1 1 2 1
2 1 36 1
3 1 37 1
4 1 39 1
5 2 3 1
6 2 5 1
7 2 28 1
8 3 4 ar
9 3 17 ar
10 5 6 1
11 5 29 1
12 5 30 1
13 6 7 1
14 6 31 1
15 6 32 1
16 7 8 1
17 7 9 1
18 8 33 1
19 8 34 1
20 8 35 1
21 9 10 1
22 9 49 1
23 9 50 1
24 10 11 1
25 10 12 1
26 10 46 1
27 11 16 1
28 12 13 1
29 12 14 1
30 12 44 1
31 13 45 1
32 14 15 1
33 14 16 1
34 14 42 1
35 15 43 1
36 16 27 1
37 16 41 1
38 18 19 ar
39 18 23 ar
40 19 20 ar
41 19 38 1
42 20 21 ar
43 21 22 ar
44 21 27 ar
45 22 23 ar
46 22 25 ar
47 23 24 1
48 24 47 1
49 24 48 1
50 25 26 ar
51 26 27 ar
52 26 40 1
@<TRIPOS>SUBSTRUCTURE
1	SAM1	1	GROUP	1 A	SAM
