# created with PyMOL 2.5.2
@<TRIPOS>MOLECULE
for_leap
15 15 1                 
SMALL
USER_CHARGES
@<TRIPOS>ATOM
1	  C1	-4.459	-12.588	-16.310	C.2	1	DNC302	0.000	
2	  N1	-3.555	-9.837	-18.693	N.pl3	1	DNC302	0.000	
3	  O1	-4.968	-12.663	-15.084	O.3	1	DNC302	0.000	
4	  C2	-4.334	-11.243	-16.821	C.2	1	DNC302	0.000	
5	  N2	-3.165	-14.609	-19.129	N.pl3	1	DNC302	0.000	
6	  O2	-4.624	-10.254	-16.000	O.3	1	DNC302	0.000	
7	  C3	-3.763	-11.081	-18.145	C.2	1	DNC302	0.000	
8	  O3	-3.982	-8.842	-18.190	O.3	1	DNC302	0.000	
9	  C4	-3.437	-12.210	-18.874	C.2	1	DNC302	0.000	
10	  O4	-2.913	-9.738	-19.765	O.3	1	DNC302	0.000	
11	  C5	-3.575	-13.480	-18.359	C.2	1	DNC302	0.000	
12	  O5	-2.726	-14.406	-20.229	O.3	1	DNC302	0.000	
13	  C6	-4.088	-13.680	-17.097	C.2	1	DNC302	0.000	
14	  O6	-3.200	-15.720	-18.606	O.3	1	DNC302	0.000	
15	 H01	-4.974	-11.790	-14.686	 H	1	DNC302	0.000	
@<TRIPOS>BOND
1 1 3 1
2 1 13 1
3 2 7 1
4 2 8 1
5 2 10 1
6 3 15 1
7 4 6 1
8 4 7 1
9 5 11 1
10 5 12 1
11 5 14 1
12 9 11 1
13 11 13 2
14 7 9 2
15 1 4 2
@<TRIPOS>SUBSTRUCTURE
1	DNC302	1	GROUP	1 B	DNC
