@<TRIPOS>MOLECULE
3BWY.A
17 17 1 0 0 
SMALL
USER_CHARGES


@<TRIPOS>ATOM
  1 C1      -4.4590   -12.5880   -16.3100 C.ar  1 DNC   0.0825 
  2 N1      -3.5550    -9.8370   -18.6930 N.pl3 1 DNC   0.9070 
  3 O1      -4.9680   -12.6630   -15.0840 O.3   1 DNC  -0.5325 
  4 H1      -5.1709   -11.8178   -14.6766 H     1 DNC   0.4500 
  5 C2      -4.3340   -11.2430   -16.8210 C.ar  1 DNC  -0.1710 
  6 N2      -3.1650   -14.6090   -19.1290 N.pl3 1 DNC   0.9070 
  7 O2      -4.6240   -10.2540   -16.0000 O.3   1 DNC  -0.8290 
  8 C3      -3.7630   -11.0810   -18.1450 C.ar  1 DNC   0.1330 
  9 O3      -3.9820    -8.8420   -18.1900 O.2   1 DNC  -0.5200 
 10 C4      -3.4370   -12.2100   -18.8740 C.ar  1 DNC  -0.1500 
 11 H4      -3.0620   -12.0921   -19.8799 H     1 DNC   0.1500 
 12 O4      -2.9130    -9.7380   -19.7650 O.2   1 DNC  -0.5200 
 13 C5      -3.5750   -13.4800   -18.3590 C.ar  1 DNC   0.1330 
 14 O5      -2.7260   -14.4060   -20.2290 O.2   1 DNC  -0.5200 
 15 C6      -4.0880   -13.6800   -17.0970 C.ar  1 DNC  -0.1500 
 16 H6      -4.2036   -14.6836   -16.7151 H     1 DNC   0.1500 
 17 O6      -3.2000   -15.7200   -18.6060 O.2   1 DNC  -0.5200 
@<TRIPOS>BOND
  1   1   3  1   
  2   1   5  ar  
  3   1  15  ar  
  4   2   8  1   
  5   2   9  2   
  6   2  12  2   
  7   3   4  1   
  8   5   7  1   
  9   5   8  ar  
 10   6  13  1   
 11   6  14  2   
 12   6  17  2   
 13   8  10  ar  
 14  10  11  1   
 15  10  13  ar  
 16  13  15  ar  
 17  15  16  1   
@<TRIPOS>SUBSTRUCTURE
  1 DNC  10 GROUP 4 A **** 0

# MOE 2022.02 (io_trps.svl 2020.11)
