# created with PyMOL 2.5.0
@<TRIPOS>MOLECULE
3BWY
27 29 1                 
SMALL
USER_CHARGES
@<TRIPOS>ATOM
1	   N	-9.361	-7.101	-12.783	N.3	1	SAM301	0.000	
2	  CA	-10.294	-7.794	-13.737	C.3	1	SAM301	0.000	
3	   C	-10.976	-8.940	-12.998	C.2	1	SAM301	0.000	
4	   O	-10.267	-9.620	-12.237	O.co2	1	SAM301	0.000	
5	  CB	-9.612	-8.353	-14.981	C.3	1	SAM301	0.000	
6	  CG	-8.920	-7.262	-15.803	C.3	1	SAM301	0.000	
7	  SD	-8.291	-7.948	-17.321	S.3	1	SAM301	0.000	
8	  CE	-6.846	-8.833	-16.685	C.3	1	SAM301	0.000	
9	 C5'	-7.270	-6.495	-17.905	C.3	1	SAM301	0.000	
10	 C4'	-7.914	-5.203	-18.440	C.3	1	SAM301	0.000	
11	 O4'	-7.118	-4.024	-18.343	O.3	1	SAM301	0.000	
12	 C3'	-8.568	-5.291	-19.814	C.3	1	SAM301	0.000	
13	 O3'	-9.955	-5.062	-19.638	O.3	1	SAM301	0.000	
14	 C2'	-7.928	-4.118	-20.555	C.3	1	SAM301	0.000	
15	 O2'	-8.750	-3.459	-21.528	O.3	1	SAM301	0.000	
16	 C1'	-7.556	-3.173	-19.422	C.3	1	SAM301	0.000	
17	 OXT	-12.161	-9.192	-13.205	O.co2	1	SAM301	0.000	
18	  N1	-5.584	1.418	-18.225	N.2	1	SAM301	0.000	
19	  C2	-6.844	0.854	-17.926	C.2	1	SAM301	0.000	
20	  N3	-7.220	-0.384	-18.351	N.2	1	SAM301	0.000	
21	  C4	-6.340	-1.056	-19.108	C.2	1	SAM301	0.000	
22	  C5	-5.093	-0.527	-19.479	C.2	1	SAM301	0.000	
23	  C6	-4.718	0.742	-19.011	C.2	1	SAM301	0.000	
24	  N6	-3.537	1.313	-19.325	N.pl3	1	SAM301	0.000	
25	  N7	-4.436	-1.474	-20.239	N.2	1	SAM301	0.000	
26	  C8	-5.263	-2.546	-20.351	C.2	1	SAM301	0.000	
27	  N9	-6.446	-2.283	-19.662	N.2	1	SAM301	0.000	
@<TRIPOS>BOND
1 1 2 1
2 2 3 1
3 2 5 1
4 3 4 ar
5 3 17 ar
6 5 6 1
7 6 7 1
8 7 8 1
9 7 9 1
10 9 10 1
11 10 11 1
12 10 12 1
13 11 16 1
14 12 13 1
15 12 14 1
16 14 15 1
17 14 16 1
18 16 27 1
19 18 19 ar
20 18 23 ar
21 19 20 ar
22 20 21 ar
23 21 22 ar
24 21 27 ar
25 22 23 ar
26 22 25 ar
27 23 24 1
28 25 26 ar
29 26 27 ar
@<TRIPOS>SUBSTRUCTURE
1	SAM301	1	GROUP	1 A	SAM
