@<TRIPOS>MOLECULE
3BWY.A
51 53 1 0 0 
SMALL
USER_CHARGES


@<TRIPOS>ATOM
  1 N       -9.3610    -7.1010   -12.7830 N.4   1 SAM  -0.8530 
  2 H1      -8.6827    -7.7633   -12.4347 H     1 SAM   0.4500 
  3 H2      -9.8897    -6.7226   -12.0101 H     1 SAM   0.4500 
  4 H3      -8.8839    -6.3516   -13.2634 H     1 SAM   0.4500 
  5 CA     -10.2940    -7.7940   -13.7370 C.3   1 SAM   0.3170 
  6 HA     -11.0033    -7.0425   -14.0838 H     1 SAM   0.0800 
  7 C      -10.9760    -8.9400   -12.9980 C.2   1 SAM   0.9060 
  8 O      -10.2670    -9.6200   -12.2370 O.co2 1 SAM  -0.9000 
  9 CB      -9.6120    -8.3530   -14.9810 C.3   1 SAM  -0.1600 
 10 HB1    -10.3628    -8.8386   -15.6043 H     1 SAM   0.0800 
 11 HB2     -8.8664    -9.0859   -14.6728 H     1 SAM   0.0800 
 12 CG      -8.9200    -7.2620   -15.8030 C.3   1 SAM  -0.1525 
 13 HG1     -8.0945    -6.8448   -15.2263 H     1 SAM   0.0800 
 14 HG2     -9.6372    -6.4741   -16.0331 H     1 SAM   0.0800 
 15 SD      -8.2910    -7.9480   -17.3210 S.3   1 SAM   0.9775 
 16 CE      -6.8460    -8.8330   -16.6850 C.3   1 SAM  -0.2325 
 17 HE1     -7.1622    -9.7835   -16.2553 H     1 SAM   0.0800 
 18 HE2     -6.3601    -8.2309   -15.9173 H     1 SAM   0.0800 
 19 HE3     -6.1455    -9.0176   -17.4994 H     1 SAM   0.0800 
 20 C5'     -7.2700    -6.4950   -17.9050 C.3   1 SAM  -0.1525 
 21 H5'1    -6.6340    -6.8722   -18.7058 H     1 SAM   0.0800 
 22 H5'2    -6.6507    -6.1984   -17.0585 H     1 SAM   0.0800 
 23 C4'     -7.9140    -5.2030   -18.4400 C.3   1 SAM   0.2000 
 24 H4'     -8.7255    -5.0991   -17.7198 H     1 SAM   0.0800 
 25 O4'     -7.1180    -4.0240   -18.3430 O.3   1 SAM  -0.5600 
 26 C3'     -8.5680    -5.2910   -19.8140 C.3   1 SAM   0.2000 
 27 H3'     -8.4419    -6.2406   -20.3341 H     1 SAM   0.0800 
 28 O3'     -9.9550    -5.0620   -19.6380 O.3   1 SAM  -0.6800 
 29 H3'    -10.3572    -5.0325   -20.5092 H     1 SAM   0.4000 
 30 C2'     -7.9280    -4.1180   -20.5550 C.3   1 SAM   0.2000 
 31 H2'     -7.0966    -4.4660   -21.1680 H     1 SAM   0.0800 
 32 O2'     -8.7500    -3.4590   -21.5280 O.3   1 SAM  -0.6800 
 33 H2'     -8.2298    -2.7517   -21.9163 H     1 SAM   0.4000 
 34 C1'     -7.5560    -3.1730   -19.4220 C.3   1 SAM   0.5691 
 35 H1'     -8.4306    -2.5457   -19.2501 H     1 SAM   0.0800 
 36 OXT    -12.1610    -9.1920   -13.2050 O.co2 1 SAM  -0.9000 
 37 N1      -5.5840     1.4180   -18.2250 N.2   1 SAM  -0.6610 
 38 C2      -6.8440     0.8540   -17.9260 C.2   1 SAM   0.6010 
 39 H2      -7.5400     1.4300   -17.3342 H     1 SAM   0.0600 
 40 N3      -7.2200    -0.3840   -18.3510 N.2   1 SAM  -0.6610 
 41 C4      -6.3400    -1.0560   -19.1080 C.2   1 SAM   0.5000 
 42 C5      -5.0930    -0.5270   -19.4790 C.2   1 SAM   0.4500 
 43 C6      -4.7180     0.7420   -19.0110 C.2   1 SAM   0.6110 
 44 N6      -3.5370     1.3130   -19.3250 N.2   1 SAM  -0.2000 
 45 H62     -3.3075     2.2287   -18.9660 H     1 SAM   0.4000 
 46 H61     -2.8822     0.8248   -19.9191 H     1 SAM   0.4000 
 47 N7      -4.4360    -1.4740   -20.2390 N.2   1 SAM  -0.6960 
 48 C8      -5.2630    -2.5460   -20.3510 C.3   1 SAM   0.4551 
 49 H81     -4.7803    -3.4256   -19.9251 H     1 SAM   0.0800 
 50 H82     -5.4855    -2.7271   -21.4026 H     1 SAM   0.0800 
 51 N9      -6.4460    -2.2830   -19.6620 N.pl3 1 SAM  -0.7882 
@<TRIPOS>BOND
  1   1   2  1   
  2   1   3  1   
  3   1   4  1   
  4   1   5  1   
  5   5   6  1   
  6   5   7  1   
  7   5   9  1   
  8   7   8  ar  
  9   7  36  ar  
 10   9  10  1   
 11   9  11  1   
 12   9  12  1   
 13  12  13  1   
 14  12  14  1   
 15  12  15  1   
 16  15  16  1   
 17  15  20  1   
 18  16  17  1   
 19  16  18  1   
 20  16  19  1   
 21  20  21  1   
 22  20  22  1   
 23  20  23  1   
 24  23  24  1   
 25  23  25  1   
 26  23  26  1   
 27  25  34  1   
 28  26  27  1   
 29  26  28  1   
 30  26  30  1   
 31  28  29  1   
 32  30  31  1   
 33  30  32  1   
 34  30  34  1   
 35  32  33  1   
 36  34  35  1   
 37  34  51  1   
 38  37  38  2   
 39  37  43  1   
 40  38  39  1   
 41  38  40  1   
 42  40  41  2   
 43  41  42  1   
 44  41  51  1   
 45  42  43  1   
 46  42  47  2   
 47  43  44  2   
 48  44  45  1   
 49  44  46  1   
 50  47  48  1   
 51  48  49  1   
 52  48  50  1   
 53  48  51  1   
@<TRIPOS>SUBSTRUCTURE
  1 SAM  25 GROUP 4 A **** 0

# MOE 2022.02 (io_trps.svl 2020.11)
