# created with PyMOL 2.4.0
@<TRIPOS>MOLECULE
temp
50 52 1                 
SMALL
USER_CHARGES
@<TRIPOS>ATOM
1	   N	-9.361	-7.101	-12.783	N.4	1	SAM1	0.000	
2	  CA	-10.294	-7.794	-13.737	C.3	1	SAM1	0.000	
3	   C	-10.976	-8.940	-12.998	C.2	1	SAM1	0.000	
4	   O	-10.267	-9.620	-12.237	O.co2	1	SAM1	0.000	
5	  CB	-9.612	-8.353	-14.981	C.3	1	SAM1	0.000	
6	  CG	-8.920	-7.262	-15.803	C.3	1	SAM1	0.000	
7	  SD	-8.291	-7.948	-17.321	S.3	1	SAM1	0.000	
8	  CE	-6.846	-8.833	-16.685	C.3	1	SAM1	0.000	
9	 C5'	-7.270	-6.495	-17.905	C.3	1	SAM1	0.000	
10	 C4'	-7.914	-5.203	-18.440	C.3	1	SAM1	0.000	
11	 O4'	-7.118	-4.024	-18.343	O.3	1	SAM1	0.000	
12	 C3'	-8.568	-5.291	-19.814	C.3	1	SAM1	0.000	
13	 O3'	-9.955	-5.062	-19.638	O.3	1	SAM1	0.000	
14	 C2'	-7.928	-4.118	-20.555	C.3	1	SAM1	0.000	
15	 O2'	-8.750	-3.459	-21.528	O.3	1	SAM1	0.000	
16	 C1'	-7.556	-3.173	-19.422	C.3	1	SAM1	0.000	
17	 OXT	-12.161	-9.192	-13.205	O.co2	1	SAM1	0.000	
18	  N1	-5.584	1.418	-18.225	N.2	1	SAM1	0.000	
19	  C2	-6.844	0.854	-17.926	C.2	1	SAM1	0.000	
20	  N3	-7.220	-0.384	-18.351	N.2	1	SAM1	0.000	
21	  C4	-6.340	-1.056	-19.108	C.2	1	SAM1	0.000	
22	  C5	-5.093	-0.527	-19.479	C.2	1	SAM1	0.000	
23	  C6	-4.718	0.742	-19.011	C.2	1	SAM1	0.000	
24	  N6	-3.537	1.313	-19.325	N.pl3	1	SAM1	0.000	
25	  N7	-4.436	-1.474	-20.239	N.2	1	SAM1	0.000	
26	  C8	-5.263	-2.546	-20.351	C.2	1	SAM1	0.000	
27	  N9	-6.446	-2.283	-19.662	N.2	1	SAM1	0.000	
28	  HA	-11.003	-7.043	-14.084	 H	1	SAM1	0.000	
29	 HB1	-10.363	-8.839	-15.604	 H	1	SAM1	0.000	
30	 HB2	-8.866	-9.086	-14.673	 H	1	SAM1	0.000	
31	 HG1	-8.094	-6.845	-15.226	 H	1	SAM1	0.000	
32	 HG2	-9.637	-6.474	-16.033	 H	1	SAM1	0.000	
33	 HE1	-7.162	-9.783	-16.255	 H	1	SAM1	0.000	
34	 HE2	-6.360	-8.231	-15.917	 H	1	SAM1	0.000	
35	 HE3	-6.146	-9.018	-17.499	 H	1	SAM1	0.000	
36	  H1	-8.683	-7.763	-12.435	 H	1	SAM1	0.000	
37	  H2	-9.890	-6.723	-12.010	 H	1	SAM1	0.000	
38	  H2	-7.540	1.430	-17.334	 H	1	SAM1	0.000	
39	  H3	-8.884	-6.352	-13.263	 H	1	SAM1	0.000	
40	  H8	-5.040	-3.456	-20.888	 H	1	SAM1	0.000	
41	 H1'	-8.431	-2.546	-19.250	 H	1	SAM1	0.000	
42	 H2'	-7.097	-4.466	-21.168	 H	1	SAM1	0.000	
43	 H2'	-8.998	-4.111	-22.187	 H	1	SAM1	0.000	
44	 H3'	-8.442	-6.241	-20.334	 H	1	SAM1	0.000	
45	 H3'	-10.357	-5.032	-20.509	 H	1	SAM1	0.000	
46	 H4'	-8.726	-5.099	-17.720	 H	1	SAM1	0.000	
47	 H61	-2.882	0.825	-19.919	 H	1	SAM1	0.000	
48	 H62	-3.307	2.229	-18.966	 H	1	SAM1	0.000	
49	H5'1	-6.634	-6.872	-18.706	 H	1	SAM1	0.000	
50	H5'2	-6.651	-6.198	-17.059	 H	1	SAM1	0.000	
@<TRIPOS>BOND
1 1 2 1
2 1 36 1
3 1 37 1
4 1 39 1
5 2 3 1
6 2 5 1
7 2 28 1
8 3 4 ar
9 3 17 ar
10 5 6 1
11 5 29 1
12 5 30 1
13 6 7 1
14 6 31 1
15 6 32 1
16 7 8 1
17 7 9 1
18 8 33 1
19 8 34 1
20 8 35 1
21 9 10 1
22 9 49 1
23 9 50 1
24 10 11 1
25 10 12 1
26 10 46 1
27 11 16 1
28 12 13 1
29 12 14 1
30 12 44 1
31 13 45 1
32 14 15 1
33 14 16 1
34 14 42 1
35 15 43 1
36 16 27 1
37 16 41 1
38 18 19 ar
39 18 23 ar
40 19 20 ar
41 19 38 1
42 20 21 ar
43 21 22 ar
44 21 27 ar
45 22 23 ar
46 22 25 ar
47 23 24 1
48 24 47 1
49 24 48 1
50 25 26 ar
51 26 27 ar
52 26 40 1
@<TRIPOS>SUBSTRUCTURE
1	SAM1	1	GROUP	1 A	SAM
