# created with PyMOL 2.5.0
@<TRIPOS>MOLECULE
3LCV
27 29 1                 
SMALL
USER_CHARGES
@<TRIPOS>ATOM
1	   N	8.880	-1.740	22.986	N.3	1	SAM301	0.000	
2	  CA	7.443	-1.475	23.102	C.3	1	SAM301	0.000	
3	   C	6.685	-2.752	23.455	C.2	1	SAM301	0.000	
4	   O	7.064	-3.823	23.013	O.co2	1	SAM301	0.000	
5	  CB	6.868	-0.909	21.666	C.3	1	SAM301	0.000	
6	  CG	6.836	-1.789	20.427	C.3	1	SAM301	0.000	
7	  SD	6.185	-0.950	18.948	S.3	1	SAM301	0.000	
8	  CE	5.751	-2.289	17.813	C.3	1	SAM301	0.000	
9	 C5'	6.958	-0.131	18.314	C.3	1	SAM301	0.000	
10	 C4'	7.566	1.146	18.876	C.3	1	SAM301	0.000	
11	 O4'	8.805	1.434	18.190	O.3	1	SAM301	0.000	
12	 C3'	6.690	2.368	18.672	C.3	1	SAM301	0.000	
13	 O3'	6.392	2.669	20.079	O.3	1	SAM301	0.000	
14	 C2'	7.561	3.489	18.115	C.3	1	SAM301	0.000	
15	 O2'	7.454	4.802	18.633	O.3	1	SAM301	0.000	
16	 C1'	8.970	2.834	18.110	C.3	1	SAM301	0.000	
17	 OXT	5.511	-2.855	24.275	O.co2	1	SAM301	0.000	
18	  N1	13.522	5.085	17.017	N.2	1	SAM301	0.000	
19	  C2	12.987	4.804	18.237	C.2	1	SAM301	0.000	
20	  N3	11.746	4.281	18.360	N.2	1	SAM301	0.000	
21	  C4	10.991	4.023	17.273	C.2	1	SAM301	0.000	
22	  C5	11.480	4.288	16.048	C.2	1	SAM301	0.000	
23	  C6	12.779	4.831	15.901	C.2	1	SAM301	0.000	
24	  N6	13.291	5.097	14.730	N.pl3	1	SAM301	0.000	
25	  N7	10.560	3.952	15.156	N.2	1	SAM301	0.000	
26	  C8	9.499	3.478	15.783	C.2	1	SAM301	0.000	
27	  N9	9.717	3.488	17.145	N.2	1	SAM301	0.000	
@<TRIPOS>BOND
1 1 2 1
2 2 3 1
3 2 5 1
4 3 4 2
5 3 17 1
6 5 6 1
7 6 7 1
8 7 8 1
9 7 9 1
10 9 10 1
11 10 11 1
12 10 12 1
13 11 16 1
14 12 13 1
15 12 14 1
16 14 15 1
17 14 16 1
18 16 27 1
19 18 19 ar
20 18 23 ar
21 19 20 ar
22 20 21 ar
23 21 22 ar
24 21 27 ar
25 22 23 ar
26 22 25 ar
27 23 24 1
28 25 26 ar
29 26 27 ar
@<TRIPOS>SUBSTRUCTURE
1	SAM301	1	GROUP	1 B	SAM
