@<TRIPOS>MOLECULE
3LCV.B
51 53 1 0 0 
SMALL
USER_CHARGES


@<TRIPOS>ATOM
  1 N        8.8800    -1.7400    22.9860 N.4   1 SAM  -0.8530 
  2 H1       9.0388    -2.4230    22.2591 H     1 SAM   0.4500 
  3 H2       9.2287    -2.0960    23.8645 H     1 SAM   0.4500 
  4 H3       9.3627    -0.8835    22.7545 H     1 SAM   0.4500 
  5 CA       7.4430    -1.4750    23.1020 C.3   1 SAM   0.3170 
  6 HA       7.2955    -0.7369    23.8904 H     1 SAM   0.0800 
  7 C        6.6850    -2.7520    23.4550 C.2   1 SAM   0.9060 
  8 O        7.0640    -3.8230    23.0130 O.co2 1 SAM  -0.9000 
  9 CB       6.8680    -0.9090    21.6660 C.3   1 SAM  -0.1600 
 10 HB1      7.4747    -0.0399    21.4117 H     1 SAM   0.0800 
 11 HB2      5.8404    -0.5942    21.8476 H     1 SAM   0.0800 
 12 CG       6.8360    -1.7890    20.4270 C.3   1 SAM  -0.1525 
 13 HG1      6.2073    -2.6545    20.6361 H     1 SAM   0.0800 
 14 HG2      7.8523    -2.1210    20.2147 H     1 SAM   0.0800 
 15 SD       6.1850    -0.9500    18.9480 S.3   1 SAM   0.9775 
 16 CE       5.7510    -2.2890    17.8130 C.3   1 SAM  -0.2325 
 17 HE1      5.0974    -2.9982    18.3208 H     1 SAM   0.0800 
 18 HE2      6.6582    -2.7989    17.4888 H     1 SAM   0.0800 
 19 HE3      5.2358    -1.8771    16.9452 H     1 SAM   0.0800 
 20 C5'      6.9580    -0.1310    18.3140 C.3   1 SAM  -0.1525 
 21 H5'1     6.3846     0.1856    17.4428 H     1 SAM   0.0800 
 22 H5'2     7.8073    -0.7329    17.9908 H     1 SAM   0.0800 
 23 C4'      7.5660     1.1460    18.8760 C.3   1 SAM   0.2000 
 24 H4'      7.6963     0.9654    19.9430 H     1 SAM   0.0800 
 25 O4'      8.8050     1.4340    18.1900 O.3   1 SAM  -0.5600 
 26 C3'      6.6900     2.3680    18.6720 C.3   1 SAM   0.2000 
 27 H3'      5.8312     2.2458    18.0120 H     1 SAM   0.0800 
 28 O3'      6.3920     2.6690    20.0790 O.3   1 SAM  -0.6800 
 29 H3'      5.8999     3.4930    20.1016 H     1 SAM   0.4000 
 30 C2'      7.5610     3.4890    18.1150 C.3   1 SAM   0.2000 
 31 H2'      7.2094     3.7987    17.1308 H     1 SAM   0.0800 
 32 O2'      7.4540     4.8020    18.6330 O.3   1 SAM  -0.6800 
 33 H2'      8.0296     5.3672    18.1126 H     1 SAM   0.4000 
 34 C1'      8.9700     2.8340    18.1100 C.3   1 SAM   0.5691 
 35 H1'      9.6246     2.9660    18.9715 H     1 SAM   0.0800 
 36 OXT      5.5110    -2.8550    24.2750 O.co2 1 SAM  -0.9000 
 37 N1      13.5220     5.0850    17.0170 N.2   1 SAM  -0.6610 
 38 C2      12.9870     4.8040    18.2370 C.2   1 SAM   0.6010 
 39 H2      13.5666     5.0032    19.1263 H     1 SAM   0.0600 
 40 N3      11.7460     4.2810    18.3600 N.2   1 SAM  -0.6610 
 41 C4      10.9910     4.0230    17.2730 C.2   1 SAM   0.5000 
 42 C5      11.4800     4.2880    16.0480 C.2   1 SAM   0.4500 
 43 C6      12.7790     4.8310    15.9010 C.2   1 SAM   0.6110 
 44 N6      13.2910     5.0970    14.7300 N.2   1 SAM  -0.2000 
 45 H62     14.2213     5.4842    14.6618 H     1 SAM   0.4000 
 46 H61     12.7568     4.9156    13.8923 H     1 SAM   0.4000 
 47 N7      10.5600     3.9520    15.1560 N.2   1 SAM  -0.6960 
 48 C8       9.4990     3.4780    15.7830 C.3   1 SAM   0.4551 
 49 H81      9.3112     2.4559    15.4542 H     1 SAM   0.0800 
 50 H82      8.6340     4.0991    15.5506 H     1 SAM   0.0800 
 51 N9       9.7170     3.4880    17.1450 N.pl3 1 SAM  -0.7882 
@<TRIPOS>BOND
  1   1   2  1   
  2   1   3  1   
  3   1   4  1   
  4   1   5  1   
  5   5   6  1   
  6   5   7  1   
  7   5   9  1   
  8   7   8  ar  
  9   7  36  ar  
 10   9  10  1   
 11   9  11  1   
 12   9  12  1   
 13  12  13  1   
 14  12  14  1   
 15  12  15  1   
 16  15  16  1   
 17  15  20  1   
 18  16  17  1   
 19  16  18  1   
 20  16  19  1   
 21  20  21  1   
 22  20  22  1   
 23  20  23  1   
 24  23  24  1   
 25  23  25  1   
 26  23  26  1   
 27  25  34  1   
 28  26  27  1   
 29  26  28  1   
 30  26  30  1   
 31  28  29  1   
 32  30  31  1   
 33  30  32  1   
 34  30  34  1   
 35  32  33  1   
 36  34  35  1   
 37  34  51  1   
 38  37  38  2   
 39  37  43  1   
 40  38  39  1   
 41  38  40  1   
 42  40  41  2   
 43  41  42  1   
 44  41  51  1   
 45  42  43  1   
 46  42  47  2   
 47  43  44  2   
 48  44  45  1   
 49  44  46  1   
 50  47  48  1   
 51  48  49  1   
 52  48  50  1   
 53  48  51  1   
@<TRIPOS>SUBSTRUCTURE
  1 SAM  25 GROUP 4 B **** 0

# MOE 2022.02 (io_trps.svl 2020.11)
