# created with PyMOL 2.5.0
@<TRIPOS>MOLECULE
2NXE
27 29 1                 
SMALL
USER_CHARGES
@<TRIPOS>ATOM
1	   N	4.618	-23.491	18.322	N.3	1	SAM302	0.000	
2	  CA	5.863	-22.618	18.432	C.3	1	SAM302	0.000	
3	   C	6.786	-22.890	17.257	C.2	1	SAM302	0.000	
4	   O	6.478	-23.767	16.452	O.co2	1	SAM302	0.000	
5	  CB	6.647	-22.988	19.690	C.3	1	SAM302	0.000	
6	  CG	7.315	-24.359	19.698	C.3	1	SAM302	0.000	
7	  SD	8.366	-24.697	21.146	S.3	1	SAM302	0.000	
8	  CE	9.437	-25.974	20.479	C.3	1	SAM302	0.000	
9	 C5'	7.293	-25.705	22.220	C.3	1	SAM302	0.000	
10	 C4'	6.396	-24.867	23.129	C.3	1	SAM302	0.000	
11	 O4'	5.564	-25.837	23.766	O.3	1	SAM302	0.000	
12	 C3'	7.123	-24.096	24.232	C.3	1	SAM302	0.000	
13	 O3'	6.603	-22.785	24.271	O.3	1	SAM302	0.000	
14	 C2'	6.770	-24.883	25.513	C.3	1	SAM302	0.000	
15	 O2'	6.662	-24.041	26.650	O.3	1	SAM302	0.000	
16	 C1'	5.451	-25.551	25.165	C.3	1	SAM302	0.000	
17	 OXT	7.874	-22.281	17.132	O.co2	1	SAM302	0.000	
18	  N1	1.663	-28.749	26.611	N.2	1	SAM302	0.000	
19	  C2	1.529	-27.475	26.082	C.2	1	SAM302	0.000	
20	  N3	2.700	-26.798	25.765	N.2	1	SAM302	0.000	
21	  C4	3.925	-27.348	25.987	C.2	1	SAM302	0.000	
22	  C5	4.067	-28.627	26.535	C.2	1	SAM302	0.000	
23	  C6	2.904	-29.318	26.861	C.2	1	SAM302	0.000	
24	  N6	2.975	-30.552	27.372	N.pl3	1	SAM302	0.000	
25	  N7	5.398	-28.904	26.642	N.2	1	SAM302	0.000	
26	  C8	6.097	-27.827	26.173	C.2	1	SAM302	0.000	
27	  N9	5.191	-26.862	25.781	N.2	1	SAM302	0.000	
@<TRIPOS>BOND
1 1 2 1
2 2 3 1
3 2 5 1
4 3 4 ar
5 3 17 ar
6 5 6 1
7 6 7 1
8 7 8 1
9 7 9 1
10 9 10 1
11 10 11 1
12 10 12 1
13 11 16 1
14 12 13 1
15 12 14 1
16 14 15 1
17 14 16 1
18 16 27 1
19 18 19 ar
20 18 23 ar
21 19 20 ar
22 20 21 ar
23 21 22 ar
24 21 27 ar
25 22 23 ar
26 22 25 ar
27 23 24 1
28 25 26 ar
29 26 27 ar
@<TRIPOS>SUBSTRUCTURE
1	SAM302	1	GROUP	1 A	SAM
