@<TRIPOS>MOLECULE
2NXE.A
51 53 1 0 0 
SMALL
USER_CHARGES


@<TRIPOS>ATOM
  1 N        4.6180   -23.4910    18.3220 N.4   1 SAM  -0.8530 
  2 H1       4.8897   -24.4635    18.2985 H     1 SAM   0.4500 
  3 H2       4.1189   -23.2604    17.4748 H     1 SAM   0.4500 
  4 H3       4.0206   -23.3275    19.1198 H     1 SAM   0.4500 
  5 CA       5.8630   -22.6180    18.4320 C.3   1 SAM   0.3170 
  6 HA       5.5440   -21.5760    18.4555 H     1 SAM   0.0800 
  7 C        6.7860   -22.8900    17.2570 C.2   1 SAM   0.9060 
  8 O        6.4780   -23.7670    16.4520 O.co2 1 SAM  -0.9000 
  9 CB       6.6470   -22.9880    19.6900 C.3   1 SAM  -0.1600 
 10 HB1      5.9569   -22.9512    20.5329 H     1 SAM   0.0800 
 11 HB2      7.4271   -22.2390    19.8261 H     1 SAM   0.0800 
 12 CG       7.3150   -24.3590    19.6980 C.3   1 SAM  -0.1525 
 13 HG1      7.9349   -24.4379    18.8049 H     1 SAM   0.0800 
 14 HG2      6.5319   -25.1165    19.6648 H     1 SAM   0.0800 
 15 SD       8.3660   -24.6970    21.1460 S.3   1 SAM   0.9775 
 16 CE       9.4370   -25.9740    20.4790 C.3   1 SAM  -0.2325 
 17 HE1     10.1584   -25.5236    19.7972 H     1 SAM   0.0800 
 18 HE2      8.8365   -26.7070    19.9403 H     1 SAM   0.0800 
 19 HE3      9.9664   -26.4668    21.2945 H     1 SAM   0.0800 
 20 C5'      7.2930   -25.7050    22.2200 C.3   1 SAM  -0.1525 
 21 H5'1     7.9237   -26.3385    22.8438 H     1 SAM   0.0800 
 22 H5'2     6.6606   -26.3301    21.5897 H     1 SAM   0.0800 
 23 C4'      6.3960   -24.8670    23.1290 C.3   1 SAM   0.2000 
 24 H4'      5.8931   -24.1083    22.5294 H     1 SAM   0.0800 
 25 O4'      5.5640   -25.8370    23.7660 O.3   1 SAM  -0.5600 
 26 C3'      7.1230   -24.0960    24.2320 C.3   1 SAM   0.2000 
 27 H3'      8.2011   -24.0111    24.0953 H     1 SAM   0.0800 
 28 O3'      6.6030   -22.7850    24.2710 O.3   1 SAM  -0.6800 
 29 H3'      7.0160   -22.3307    25.0090 H     1 SAM   0.4000 
 30 C2'      6.7700   -24.8830    25.5130 C.3   1 SAM   0.2000 
 31 H2'      7.5432   -25.5993    25.7909 H     1 SAM   0.0800 
 32 O2'      6.6620   -24.0410    26.6500 O.3   1 SAM  -0.6800 
 33 H2'      5.9885   -23.3834    26.4613 H     1 SAM   0.4000 
 34 C1'      5.4510   -25.5510    25.1650 C.3   1 SAM   0.5691 
 35 H1'      4.6593   -24.8824    25.5030 H     1 SAM   0.0800 
 36 OXT      7.8740   -22.2810    17.1320 O.co2 1 SAM  -0.9000 
 37 N1       1.6630   -28.7490    26.6110 N.2   1 SAM  -0.6610 
 38 C2       1.5290   -27.4750    26.0820 C.2   1 SAM   0.6010 
 39 H2       0.5584   -27.0288    25.9234 H     1 SAM   0.0600 
 40 N3       2.7000   -26.7980    25.7650 N.2   1 SAM  -0.6610 
 41 C4       3.9250   -27.3480    25.9870 C.2   1 SAM   0.5000 
 42 C5       4.0670   -28.6270    26.5350 C.2   1 SAM   0.4500 
 43 C6       2.9040   -29.3180    26.8610 C.2   1 SAM   0.6110 
 44 N6       2.9750   -30.5520    27.3720 N.2   1 SAM  -0.2000 
 45 H62      2.1288   -31.0506    27.6074 H     1 SAM   0.4000 
 46 H61      3.8749   -30.9853    27.5224 H     1 SAM   0.4000 
 47 N7       5.3980   -28.9040    26.6420 N.2   1 SAM  -0.6960 
 48 C8       6.0970   -27.8270    26.1730 C.3   1 SAM   0.4551 
 49 H81      6.7086   -28.1263    25.3219 H     1 SAM   0.0800 
 50 H82      6.7388   -27.4323    26.9606 H     1 SAM   0.0800 
 51 N9       5.1910   -26.8620    25.7810 N.pl3 1 SAM  -0.7882 
@<TRIPOS>BOND
  1   1   2  1   
  2   1   3  1   
  3   1   4  1   
  4   1   5  1   
  5   5   6  1   
  6   5   7  1   
  7   5   9  1   
  8   7   8  ar  
  9   7  36  ar  
 10   9  10  1   
 11   9  11  1   
 12   9  12  1   
 13  12  13  1   
 14  12  14  1   
 15  12  15  1   
 16  15  16  1   
 17  15  20  1   
 18  16  17  1   
 19  16  18  1   
 20  16  19  1   
 21  20  21  1   
 22  20  22  1   
 23  20  23  1   
 24  23  24  1   
 25  23  25  1   
 26  23  26  1   
 27  25  34  1   
 28  26  27  1   
 29  26  28  1   
 30  26  30  1   
 31  28  29  1   
 32  30  31  1   
 33  30  32  1   
 34  30  34  1   
 35  32  33  1   
 36  34  35  1   
 37  34  51  1   
 38  37  38  2   
 39  37  43  1   
 40  38  39  1   
 41  38  40  1   
 42  40  41  2   
 43  41  42  1   
 44  41  51  1   
 45  42  43  1   
 46  42  47  2   
 47  43  44  2   
 48  44  45  1   
 49  44  46  1   
 50  47  48  1   
 51  48  49  1   
 52  48  50  1   
 53  48  51  1   
@<TRIPOS>SUBSTRUCTURE
  1 SAM  25 GROUP 4 A **** 0

# MOE 2022.02 (io_trps.svl 2020.11)
