# created with PyMOL 2.4.0
@<TRIPOS>MOLECULE
temp
50 52 1                 
SMALL
USER_CHARGES
@<TRIPOS>ATOM
1	   N	4.618	-23.491	18.322	N.4	1	SAM1	0.000	
2	  CA	5.863	-22.618	18.432	C.3	1	SAM1	0.000	
3	   C	6.786	-22.890	17.257	C.2	1	SAM1	0.000	
4	   O	6.478	-23.767	16.452	O.co2	1	SAM1	0.000	
5	  CB	6.647	-22.988	19.690	C.3	1	SAM1	0.000	
6	  CG	7.315	-24.359	19.698	C.3	1	SAM1	0.000	
7	  SD	8.366	-24.697	21.146	S.3	1	SAM1	0.000	
8	  CE	9.437	-25.974	20.479	C.3	1	SAM1	0.000	
9	 C5'	7.293	-25.705	22.220	C.3	1	SAM1	0.000	
10	 C4'	6.396	-24.867	23.129	C.3	1	SAM1	0.000	
11	 O4'	5.564	-25.837	23.766	O.3	1	SAM1	0.000	
12	 C3'	7.123	-24.096	24.232	C.3	1	SAM1	0.000	
13	 O3'	6.603	-22.785	24.271	O.3	1	SAM1	0.000	
14	 C2'	6.770	-24.883	25.513	C.3	1	SAM1	0.000	
15	 O2'	6.662	-24.041	26.650	O.3	1	SAM1	0.000	
16	 C1'	5.451	-25.551	25.165	C.3	1	SAM1	0.000	
17	 OXT	7.874	-22.281	17.132	O.co2	1	SAM1	0.000	
18	  N1	1.663	-28.749	26.611	N.2	1	SAM1	0.000	
19	  C2	1.529	-27.475	26.082	C.2	1	SAM1	0.000	
20	  N3	2.700	-26.798	25.765	N.2	1	SAM1	0.000	
21	  C4	3.925	-27.348	25.987	C.2	1	SAM1	0.000	
22	  C5	4.067	-28.627	26.535	C.2	1	SAM1	0.000	
23	  C6	2.904	-29.318	26.861	C.2	1	SAM1	0.000	
24	  N6	2.975	-30.552	27.372	N.pl3	1	SAM1	0.000	
25	  N7	5.398	-28.904	26.642	N.2	1	SAM1	0.000	
26	  C8	6.097	-27.827	26.173	C.2	1	SAM1	0.000	
27	  N9	5.191	-26.862	25.781	N.2	1	SAM1	0.000	
28	  HA	5.544	-21.576	18.455	 H	1	SAM1	0.000	
29	 HB1	5.957	-22.951	20.533	 H	1	SAM1	0.000	
30	 HB2	7.427	-22.239	19.826	 H	1	SAM1	0.000	
31	 HG1	7.935	-24.438	18.805	 H	1	SAM1	0.000	
32	 HG2	6.532	-25.117	19.665	 H	1	SAM1	0.000	
33	 HE1	10.158	-25.524	19.797	 H	1	SAM1	0.000	
34	 HE2	8.837	-26.707	19.940	 H	1	SAM1	0.000	
35	 HE3	9.966	-26.467	21.295	 H	1	SAM1	0.000	
36	  H1	4.890	-24.463	18.299	 H	1	SAM1	0.000	
37	  H2	4.119	-23.260	17.475	 H	1	SAM1	0.000	
38	  H2	0.558	-27.029	25.923	 H	1	SAM1	0.000	
39	  H3	4.021	-23.327	19.120	 H	1	SAM1	0.000	
40	  H8	7.173	-27.745	26.119	 H	1	SAM1	0.000	
41	 H1'	4.659	-24.882	25.503	 H	1	SAM1	0.000	
42	 H2'	7.543	-25.599	25.791	 H	1	SAM1	0.000	
43	 H2'	7.519	-23.632	26.791	 H	1	SAM1	0.000	
44	 H3'	8.201	-24.011	24.095	 H	1	SAM1	0.000	
45	 H3'	7.016	-22.331	25.009	 H	1	SAM1	0.000	
46	 H4'	5.893	-24.108	22.529	 H	1	SAM1	0.000	
47	 H61	3.875	-30.985	27.522	 H	1	SAM1	0.000	
48	 H62	2.129	-31.051	27.607	 H	1	SAM1	0.000	
49	H5'1	7.924	-26.338	22.844	 H	1	SAM1	0.000	
50	H5'2	6.661	-26.330	21.590	 H	1	SAM1	0.000	
@<TRIPOS>BOND
1 1 2 1
2 1 36 1
3 1 37 1
4 1 39 1
5 2 3 1
6 2 5 1
7 2 28 1
8 3 4 ar
9 3 17 ar
10 5 6 1
11 5 29 1
12 5 30 1
13 6 7 1
14 6 31 1
15 6 32 1
16 7 8 1
17 7 9 1
18 8 33 1
19 8 34 1
20 8 35 1
21 9 10 1
22 9 49 1
23 9 50 1
24 10 11 1
25 10 12 1
26 10 46 1
27 11 16 1
28 12 13 1
29 12 14 1
30 12 44 1
31 13 45 1
32 14 15 1
33 14 16 1
34 14 42 1
35 15 43 1
36 16 27 1
37 16 41 1
38 18 19 ar
39 18 23 ar
40 19 20 ar
41 19 38 1
42 20 21 ar
43 21 22 ar
44 21 27 ar
45 22 23 ar
46 22 25 ar
47 23 24 1
48 24 47 1
49 24 48 1
50 25 26 ar
51 26 27 ar
52 26 40 1
@<TRIPOS>SUBSTRUCTURE
1	SAM1	1	GROUP	1 A	SAM
