# created with PyMOL 2.5.2
@<TRIPOS>MOLECULE
6IX5
26 27 1                 
SMALL
USER_CHARGES
@<TRIPOS>ATOM
1	 C01	-24.455	0.810	14.228	C.2	1	B0L402	0.000	
2	 C02	-23.605	-0.266	14.036	C.2	1	B0L402	0.000	
3	 N03	-22.936	-0.765	15.049	N.2	1	B0L402	0.000	
4	 C04	-23.069	-0.323	16.286	C.2	1	B0L402	0.000	
5	 C05	-23.910	0.769	16.521	C.2	1	B0L402	0.000	
6	 C06	-24.620	1.323	15.467	C.2	1	B0L402	0.000	
7	 O07	-25.469	2.356	15.607	O.3	1	B0L402	0.000	
8	 C08	-25.224	1.311	13.006	C.2	1	B0L402	0.000	
9	 O09	-22.471	-0.829	17.139	O.2	1	B0L402	0.000	
10	 C10	-24.608	1.474	11.821	C.2	1	B0L402	0.000	
11	 C11	-25.344	1.890	10.766	C.2	1	B0L402	0.000	
12	 C12	-26.678	2.116	10.877	C.2	1	B0L402	0.000	
13	 C13	-27.319	1.917	12.047	C.2	1	B0L402	0.000	
14	 C14	-26.571	1.500	13.093	C.2	1	B0L402	0.000	
15	 C15	-23.969	1.229	17.990	C.2	1	B0L402	0.000	
16	 O16	-23.282	0.834	18.837	O.2	1	B0L402	0.000	
17	 C17	-24.990	2.255	18.393	C.3	1	B0L402	0.000	
18	 C18	-24.743	2.799	19.783	C.3	1	B0L402	0.000	
19	 C19	-23.609	3.778	19.716	C.3	1	B0L402	0.000	
20	 C20	-24.147	5.013	18.970	C.3	1	B0L402	0.000	
21	 C21	-26.262	1.466	18.510	C.3	1	B0L402	0.000	
22	 C22	-22.942	5.888	18.580	C.3	1	B0L402	0.000	
23	 C23	-22.103	6.370	19.442	C.3	1	B0L402	0.000	
24	 C24	-20.956	7.147	18.852	C.3	1	B0L402	0.000	
25	 C25	-19.996	7.593	19.572	C.3	1	B0L402	0.000	
26	 C26	-18.940	8.387	18.844	C.3	1	B0L402	0.000	
@<TRIPOS>BOND
1 1 2 ar
2 1 6 ar
3 1 8 1
4 2 3 ar
5 3 4 ar
6 4 5 ar
7 4 9 2
8 5 6 ar
9 5 15 1
10 6 7 1
11 8 10 ar
12 8 14 ar
13 10 11 ar
14 11 12 ar
15 12 13 ar
16 13 14 ar
17 15 16 2
18 15 17 1
19 17 18 1
20 17 21 1
21 18 19 1
22 19 20 1
23 20 22 1
24 22 23 1
25 23 24 1
26 24 25 1
27 25 26 1
@<TRIPOS>SUBSTRUCTURE
1	B0L402	1	GROUP	1 A	B0L
