# created with PyMOL 2.5.0
@<TRIPOS>MOLECULE
6IX5
52 54 1                 
SMALL
USER_CHARGES
@<TRIPOS>ATOM
1	 C01	-49.748	16.936	25.452	C.2	1	B0L402	0.000	
2	 C01	-49.748	16.935	25.452	C.2	1	B0L402	0.000	
3	 C02	-50.480	17.963	25.960	C.2	1	B0L402	0.000	
4	 C02	-50.479	17.961	25.963	C.2	1	B0L402	0.000	
5	 N03	-50.201	18.470	27.151	N.2	1	B0L402	0.000	
6	 N03	-50.200	18.467	27.152	N.2	1	B0L402	0.000	
7	 C04	-49.173	18.041	27.881	C.2	1	B0L402	0.000	
8	 C04	-49.170	18.042	27.881	C.2	1	B0L402	0.000	
9	 C05	-48.408	16.981	27.420	C.2	1	B0L402	0.000	
10	 C05	-48.406	16.981	27.419	C.2	1	B0L402	0.000	
11	 C06	-48.708	16.443	26.174	C.2	1	B0L402	0.000	
12	 C06	-48.707	16.442	26.173	C.2	1	B0L402	0.000	
13	 O07	-48.017	15.404	25.608	O.3	1	B0L402	0.000	
14	 O07	-48.018	15.405	25.607	O.3	1	B0L402	0.000	
15	 C08	-50.128	16.416	24.063	C.2	1	B0L402	0.000	
16	 C08	-50.130	16.416	24.063	C.2	1	B0L402	0.000	
17	 O09	-48.986	18.547	28.914	O.2	1	B0L402	0.000	
18	 O09	-48.982	18.547	28.912	O.2	1	B0L402	0.000	
19	 C10	-51.431	16.178	23.725	C.2	1	B0L402	0.000	
20	 C10	-51.431	16.177	23.723	C.2	1	B0L402	0.000	
21	 C11	-51.752	15.734	22.462	C.2	1	B0L402	0.000	
22	 C11	-51.751	15.734	22.460	C.2	1	B0L402	0.000	
23	 C12	-50.784	15.536	21.525	C.2	1	B0L402	0.000	
24	 C12	-50.784	15.538	21.525	C.2	1	B0L402	0.000	
25	 C13	-49.478	15.780	21.849	C.2	1	B0L402	0.000	
26	 C13	-49.479	15.781	21.849	C.2	1	B0L402	0.000	
27	 C14	-49.156	16.227	23.114	C.2	1	B0L402	0.000	
28	 C14	-49.158	16.227	23.114	C.2	1	B0L402	0.000	
29	 C15	-47.263	16.518	28.332	C.2	1	B0L402	0.000	
30	 C15	-47.259	16.521	28.329	C.2	1	B0L402	0.000	
31	 O16	-47.077	16.959	29.394	O.2	1	B0L402	0.000	
32	 O16	-47.077	16.955	29.392	O.2	1	B0L402	0.000	
33	 C17	-46.286	15.484	27.846	C.3	1	B0L402	0.000	
34	 C17	-46.270	15.504	27.829	C.3	1	B0L402	0.000	
35	 C18	-45.429	14.944	29.002	C.3	1	B0L402	0.000	
36	 C18	-45.404	14.965	28.977	C.3	1	B0L402	0.000	
37	 C19	-46.192	13.924	29.839	C.3	1	B0L402	0.000	
38	 C19	-46.241	14.027	29.819	C.3	1	B0L402	0.000	
39	 C20	-45.401	13.292	31.006	C.3	1	B0L402	0.000	
40	 C20	-45.575	13.244	30.959	C.3	1	B0L402	0.000	
41	 C21	-45.369	16.252	26.928	C.3	1	B0L402	0.000	
42	 C21	-45.357	16.280	26.917	C.3	1	B0L402	0.000	
43	 C22	-46.368	12.326	31.693	C.3	1	B0L402	0.000	
44	 C22	-46.722	12.270	31.208	C.3	1	B0L402	0.000	
45	 C23	-47.178	11.703	30.871	C.3	1	B0L402	0.000	
46	 C23	-46.917	11.330	32.077	C.3	1	B0L402	0.000	
47	 C24	-48.277	10.745	31.272	C.3	1	B0L402	0.000	
48	 C24	-48.277	10.700	31.841	C.3	1	B0L402	0.000	
49	 C25	-48.524	10.375	32.489	C.3	1	B0L402	0.000	
50	 C25	-48.835	9.989	32.762	C.3	1	B0L402	0.000	
51	 C26	-49.685	9.427	32.698	C.3	1	B0L402	0.000	
52	 C26	-50.197	9.385	32.529	C.3	1	B0L402	0.000	
@<TRIPOS>BOND
1 1 3 ar
2 1 11 ar
3 1 15 1
4 2 4 ar
5 2 12 ar
6 2 16 1
7 3 5 ar
8 4 6 ar
9 5 7 ar
10 6 8 ar
11 7 9 ar
12 7 17 2
13 8 10 ar
14 8 18 2
15 9 11 ar
16 9 29 1
17 10 12 ar
18 10 30 1
19 11 13 1
20 12 14 1
21 15 19 ar
22 15 27 ar
23 16 20 ar
24 16 28 ar
25 19 21 ar
26 20 22 ar
27 21 23 ar
28 22 24 ar
29 23 25 ar
30 24 26 ar
31 25 27 ar
32 26 28 ar
33 29 31 2
34 29 33 1
35 30 32 2
36 30 34 1
37 33 35 1
38 33 41 1
39 34 36 1
40 34 42 1
41 35 37 1
42 36 38 1
43 37 39 1
44 38 40 1
45 39 43 1
46 40 44 1
47 43 45 1
48 44 46 1
49 45 47 1
50 46 48 1
51 47 49 1
52 48 50 1
53 49 51 1
54 50 52 1
@<TRIPOS>SUBSTRUCTURE
1	B0L402	1	GROUP	1 B	B0L
