@<TRIPOS>MOLECULE
6IX5.A
55 56 1 0 0 
SMALL
USER_CHARGES


@<TRIPOS>ATOM
  1 C01    -24.4550     0.8100    14.2280 C.2   1 B0L  -0.0140 
  2 C02    -23.6050    -0.2660    14.0360 C.2   1 B0L  -0.0410 
  3 H02    -23.4923    -0.6953    13.0514 H     1 B0L   0.1500 
  4 N03    -22.9360    -0.7650    15.0490 N.am  1 B0L  -0.5390 
  5 H03    -22.2901    -1.5215    14.8743 H     1 B0L   0.3700 
  6 C04    -23.0690    -0.3230    16.2860 C.2   1 B0L   0.5690 
  7 C05    -23.9100     0.7690    16.5210 C.3   1 B0L   0.1030 
  8 H05    -24.7365     0.0836    16.7087 H     1 B0L   0.0800 
  9 C06    -24.6200     1.3230    15.4670 C.2   1 B0L   0.4946 
 10 O07    -25.4690     2.3560    15.6070 O.2   1 B0L  -0.5700 
 11 C08    -25.2240     1.3110    13.0060 C.ar  1 B0L   0.0284 
 12 O09    -22.4710    -0.8290    17.1390 O.2   1 B0L  -0.5700 
 13 C10    -24.6080     1.4740    11.8210 C.ar  1 B0L  -0.1500 
 14 H10    -23.5513     1.2773    11.7152 H     1 B0L   0.1500 
 15 C11    -25.3440     1.8900    10.7660 C.ar  1 B0L  -0.1500 
 16 H11    -24.8597     2.0461     9.8134 H     1 B0L   0.1500 
 17 C12    -26.6780     2.1160    10.8770 C.ar  1 B0L  -0.1500 
 18 H12    -27.2335     2.4597    10.0170 H     1 B0L   0.1500 
 19 C13    -27.3190     1.9170    12.0470 C.ar  1 B0L  -0.1500 
 20 H13    -28.3817     2.0833    12.1438 H     1 B0L   0.1500 
 21 C14    -26.5710     1.5000    13.0930 C.ar  1 B0L  -0.1500 
 22 H14    -27.0609     1.3088    14.0363 H     1 B0L   0.1500 
 23 C15    -23.9690     1.2290    17.9900 C.2   1 B0L   0.4480 
 24 O16    -23.2820     0.8340    18.8370 O.2   1 B0L  -0.5700 
 25 C17    -24.9900     2.2550    18.3930 C.3   1 B0L  -0.0190 
 26 H17    -24.9857     3.0822    17.6831 H     1 B0L   0.0800 
 27 C18    -24.7430     2.7990    19.7830 C.3   1 B0L  -0.1600 
 28 H181   -24.4844     1.9823    20.4569 H     1 B0L   0.0800 
 29 H182   -25.6402     3.2999    20.1467 H     1 B0L   0.0800 
 30 C19    -23.6090     3.7780    19.7160 C.3   1 B0L  -0.1600 
 31 H191   -22.7687     3.3455    19.1729 H     1 B0L   0.0800 
 32 H192   -23.2888     4.0539    20.7207 H     1 B0L   0.0800 
 33 C20    -24.1470     5.0130    18.9700 C.3   1 B0L  -0.1600 
 34 H201   -24.8188     5.5748    19.6189 H     1 B0L   0.0800 
 35 H202   -24.6839     4.7006    18.0743 H     1 B0L   0.0800 
 36 C21    -26.2620     1.4660    18.5100 C.3   1 B0L  -0.2400 
 37 H211   -26.1321     0.6747    19.2483 H     1 B0L   0.0800 
 38 H212   -26.5061     1.0248    17.5436 H     1 B0L   0.0800 
 39 H213   -27.0713     2.1257    18.8230 H     1 B0L   0.0800 
 40 C22    -22.9420     5.8880    18.5800 C.3   1 B0L  -0.1600 
 41 H221   -23.3555     6.7478    18.0528 H     1 B0L   0.0800 
 42 H222   -22.3491     5.2888    17.8890 H     1 B0L   0.0800 
 43 C23    -22.1030     6.3700    19.4420 C.3   1 B0L  -0.1600 
 44 H231   -21.6894     5.5381    20.0121 H     1 B0L   0.0800 
 45 H232   -22.6507     7.0329    20.1119 H     1 B0L   0.0800 
 46 C24    -20.9560     7.1470    18.8520 C.3   1 B0L  -0.1600 
 47 H241   -21.3963     8.0142    18.3599 H     1 B0L   0.0800 
 48 H242   -20.5003     6.4976    18.1046 H     1 B0L   0.0800 
 49 C25    -19.9960     7.5930    19.5720 C.3   1 B0L  -0.1600 
 50 H251   -19.5072     6.7399    20.0425 H     1 B0L   0.0800 
 51 H252   -20.4257     8.2351    20.3409 H     1 B0L   0.0800 
 52 C26    -18.9400     8.3870    18.8440 C.3   1 B0L  -0.2400 
 53 H261   -18.4916     7.7682    18.0667 H     1 B0L   0.0800 
 54 H262   -18.1697     8.6994    19.5491 H     1 B0L   0.0800 
 55 H263   -19.3956     9.2671    18.3901 H     1 B0L   0.0800 
@<TRIPOS>BOND
  1   1   2  2   
  2   1   9  1   
  3   1  11  1   
  4   2   3  1   
  5   2   4  1   
  6   4   5  1   
  7   4   6  am  
  8   6   7  1   
  9   6  12  2   
 10   7   8  1   
 11   7   9  1   
 12   7  23  1   
 13   9  10  2   
 14  11  13  ar  
 15  11  21  ar  
 16  13  14  1   
 17  13  15  ar  
 18  15  16  1   
 19  15  17  ar  
 20  17  18  1   
 21  17  19  ar  
 22  19  20  1   
 23  19  21  ar  
 24  21  22  1   
 25  23  24  2   
 26  23  25  1   
 27  25  26  1   
 28  25  27  1   
 29  25  36  1   
 30  27  28  1   
 31  27  29  1   
 32  27  30  1   
 33  30  31  1   
 34  30  32  1   
 35  30  33  1   
 36  33  34  1   
 37  33  35  1   
 38  33  40  1   
 39  36  37  1   
 40  36  38  1   
 41  36  39  1   
 42  40  41  1   
 43  40  42  1   
 44  40  43  1   
 45  43  44  1   
 46  43  45  1   
 47  43  46  1   
 48  46  47  1   
 49  46  48  1   
 50  46  49  1   
 51  49  50  1   
 52  49  51  1   
 53  49  52  1   
 54  52  53  1   
 55  52  54  1   
 56  52  55  1   
@<TRIPOS>SUBSTRUCTURE
  1 B0L   9 GROUP 4 A **** 0

# MOE 2022.02 (io_trps.svl 2020.11)
