# created with PyMOL 2.5.0
@<TRIPOS>MOLECULE
6IX5
27 29 1                 
SMALL
USER_CHARGES
@<TRIPOS>ATOM
1	   N	-58.936	19.061	33.967	N.3	1	SAM401	0.000	
2	  CA	-58.939	17.587	34.033	C.3	1	SAM401	0.000	
3	   C	-57.980	17.060	35.120	C.2	1	SAM401	0.000	
4	   O	-56.918	17.616	35.369	O.co2	1	SAM401	0.000	
5	  CB	-58.595	16.965	32.668	C.3	1	SAM401	0.000	
6	  CG	-57.530	17.600	31.777	C.3	1	SAM401	0.000	
7	  SD	-57.224	16.729	30.160	S.3	1	SAM401	0.000	
8	  CE	-55.522	17.357	30.034	C.3	1	SAM401	0.000	
9	 C5'	-58.052	17.897	29.029	C.3	1	SAM401	0.000	
10	 C4'	-59.562	17.754	29.173	C.3	1	SAM401	0.000	
11	 O4'	-60.181	18.748	28.363	O.3	1	SAM401	0.000	
12	 C3'	-60.098	16.402	28.731	C.3	1	SAM401	0.000	
13	 O3'	-61.002	15.856	29.671	O.3	1	SAM401	0.000	
14	 C2'	-60.833	16.732	27.439	C.3	1	SAM401	0.000	
15	 O2'	-61.929	15.921	27.139	O.3	1	SAM401	0.000	
16	 C1'	-61.281	18.156	27.700	C.3	1	SAM401	0.000	
17	 OXT	-58.288	16.086	35.847	O.co2	1	SAM401	0.000	
18	  N1	-64.553	21.503	25.682	N.2	1	SAM401	0.000	
19	  C2	-64.613	20.866	26.907	C.2	1	SAM401	0.000	
20	  N3	-63.638	19.959	27.304	N.2	1	SAM401	0.000	
21	  C4	-62.649	19.741	26.412	C.2	1	SAM401	0.000	
22	  C5	-62.600	20.333	25.159	C.2	1	SAM401	0.000	
23	  C6	-63.577	21.247	24.771	C.2	1	SAM401	0.000	
24	  N6	-63.525	21.843	23.568	N.pl3	1	SAM401	0.000	
25	  N7	-61.488	19.900	24.523	N.2	1	SAM401	0.000	
26	  C8	-60.839	19.042	25.331	C.2	1	SAM401	0.000	
27	  N9	-61.569	18.944	26.493	N.2	1	SAM401	0.000	
@<TRIPOS>BOND
1 1 2 1
2 2 3 1
3 2 5 1
4 3 4 ar
5 3 17 ar
6 5 6 1
7 6 7 1
8 7 8 1
9 7 9 1
10 9 10 1
11 10 11 1
12 10 12 1
13 11 16 1
14 12 13 1
15 12 14 1
16 14 15 1
17 14 16 1
18 16 27 1
19 18 19 ar
20 18 23 ar
21 19 20 ar
22 20 21 ar
23 21 22 ar
24 21 27 ar
25 22 23 ar
26 22 25 ar
27 23 24 1
28 25 26 ar
29 26 27 ar
@<TRIPOS>SUBSTRUCTURE
1	SAM401	1	GROUP	1 B	SAM
