@<TRIPOS>MOLECULE
6IX5.A
51 53 1 0 0 
SMALL
USER_CHARGES


@<TRIPOS>ATOM
  1 N      -11.8080    -1.1770    13.1330 N.4   1 SAM  -0.8530 
  2 H1     -12.2378    -1.6901    13.8894 H     1 SAM   0.4500 
  3 H2     -10.8044    -1.1886    13.2458 H     1 SAM   0.4500 
  4 H3     -12.0528    -1.6071    12.2526 H     1 SAM   0.4500 
  5 CA     -12.2780     0.1870    13.1490 C.3   1 SAM   0.3170 
  6 HA     -11.8546     0.8043    12.3567 H     1 SAM   0.0800 
  7 C      -11.8550     0.7880    14.4970 C.2   1 SAM   0.9060 
  8 O      -11.1090     1.7670    14.6190 O.co2 1 SAM  -0.9000 
  9 CB     -13.8000     0.1670    12.9350 C.3   1 SAM  -0.1600 
 10 HB1    -14.2781     0.1815    13.9144 H     1 SAM   0.0800 
 11 HB2    -14.0556    -0.7588    12.4196 H     1 SAM   0.0800 
 12 CG     -14.3520     1.3160    12.1300 C.3   1 SAM  -0.1525 
 13 HG1    -13.7439     1.4293    11.2325 H     1 SAM   0.0800 
 14 HG2    -14.2825     2.2216    12.7327 H     1 SAM   0.0800 
 15 SD     -16.0820     1.0980    11.6240 S.3   1 SAM   0.9775 
 16 CE     -17.0240     0.4570    13.0400 C.3   1 SAM  -0.2325 
 17 HE1    -17.0357     1.2019    13.8357 H     1 SAM   0.0800 
 18 HE2    -16.5550    -0.4569    13.4047 H     1 SAM   0.0800 
 19 HE3    -18.0462     0.2416    12.7288 H     1 SAM   0.0800 
 20 C5'    -16.1490    -0.2410    10.3880 C.3   1 SAM  -0.1525 
 21 H5'1   -17.1196    -0.2090     9.8930 H     1 SAM   0.0800 
 22 H5'2   -16.0348    -1.1951    10.9025 H     1 SAM   0.0800 
 23 C4'    -15.0580    -0.1260     9.3280 C.3   1 SAM   0.2000 
 24 H4'    -14.0958    -0.1978     9.8350 H     1 SAM   0.0800 
 25 O4'    -15.2560    -1.1640     8.3720 O.3   1 SAM  -0.5600 
 26 C3'    -15.1100     1.2150     8.5700 C.3   1 SAM   0.2000 
 27 H3'    -15.7667     1.9300     9.0656 H     1 SAM   0.0800 
 28 O3'    -13.8370     1.8540     8.5160 O.3   1 SAM  -0.6800 
 29 H3'    -13.9405     2.6652     8.0132 H     1 SAM   0.4000 
 30 C2'    -15.5860     0.8400     7.1750 C.3   1 SAM   0.2000 
 31 H2'    -16.6609     0.9985     7.0884 H     1 SAM   0.0800 
 32 O2'    -15.0980     1.5900     6.0690 O.3   1 SAM  -0.6800 
 33 H2'    -14.1415     1.5088     6.0626 H     1 SAM   0.4000 
 34 C1'    -15.0190    -0.5630     7.0890 C.3   1 SAM   0.5691 
 35 H1'    -13.9672    -0.4970     6.8108 H     1 SAM   0.0800 
 36 OXT    -12.2040     0.2530    15.5420 O.co2 1 SAM  -0.9000 
 37 N1     -14.1790    -4.1400     3.4750 N.2   1 SAM  -0.6610 
 38 C2     -13.2690    -3.4690     4.2460 C.2   1 SAM   0.6010 
 39 H2     -12.2182    -3.6901     4.1304 H     1 SAM   0.0600 
 40 N3     -13.6530    -2.5280     5.1570 N.2   1 SAM  -0.6610 
 41 C4     -14.9910    -2.2620     5.2730 C.2   1 SAM   0.5000 
 42 C5     -15.9430    -2.9150     4.4920 C.2   1 SAM   0.4500 
 43 C6     -15.5340    -3.8900     3.5780 C.2   1 SAM   0.6110 
 44 N6     -16.4120    -4.5680     2.7950 N.2   1 SAM  -0.2000 
 45 H62    -16.0760    -5.2656     2.1465 H     1 SAM   0.4000 
 46 H61    -17.4011    -4.3747     2.8610 H     1 SAM   0.4000 
 47 N7     -17.1870    -2.4400     4.8630 N.2   1 SAM  -0.6960 
 48 C8     -17.0230    -1.5110     5.8320 C.3   1 SAM   0.4551 
 49 H81    -17.5429    -1.8247     6.7372 H     1 SAM   0.0800 
 50 H82    -17.4215    -0.5531     5.4976 H     1 SAM   0.0800 
 51 N9     -15.6750    -1.3940     6.0840 N.pl3 1 SAM  -0.7882 
@<TRIPOS>BOND
  1   1   2  1   
  2   1   3  1   
  3   1   4  1   
  4   1   5  1   
  5   5   6  1   
  6   5   7  1   
  7   5   9  1   
  8   7   8  ar  
  9   7  36  ar  
 10   9  10  1   
 11   9  11  1   
 12   9  12  1   
 13  12  13  1   
 14  12  14  1   
 15  12  15  1   
 16  15  16  1   
 17  15  20  1   
 18  16  17  1   
 19  16  18  1   
 20  16  19  1   
 21  20  21  1   
 22  20  22  1   
 23  20  23  1   
 24  23  24  1   
 25  23  25  1   
 26  23  26  1   
 27  25  34  1   
 28  26  27  1   
 29  26  28  1   
 30  26  30  1   
 31  28  29  1   
 32  30  31  1   
 33  30  32  1   
 34  30  34  1   
 35  32  33  1   
 36  34  35  1   
 37  34  51  1   
 38  37  38  2   
 39  37  43  1   
 40  38  39  1   
 41  38  40  1   
 42  40  41  2   
 43  41  42  1   
 44  41  51  1   
 45  42  43  1   
 46  42  47  2   
 47  43  44  2   
 48  44  45  1   
 49  44  46  1   
 50  47  48  1   
 51  48  49  1   
 52  48  50  1   
 53  48  51  1   
@<TRIPOS>SUBSTRUCTURE
  1 SAM  25 GROUP 4 A **** 0

# MOE 2022.02 (io_trps.svl 2020.11)
