@<TRIPOS>MOLECULE
6IX5.B
51 53 1 0 0 
SMALL
USER_CHARGES


@<TRIPOS>ATOM
  1 N      -58.9360    19.0610    33.9670 N.4   1 SAM  -0.8530 
  2 H1     -58.0125    19.3849    33.7175 H     1 SAM   0.4500 
  3 H2     -59.1935    19.4389    34.8676 H     1 SAM   0.4500 
  4 H3     -59.6000    19.3682    33.2707 H     1 SAM   0.4500 
  5 CA     -58.9390    17.5870    34.0330 C.3   1 SAM   0.3170 
  6 HA     -59.9506    17.2848    34.3039 H     1 SAM   0.0800 
  7 C      -57.9800    17.0600    35.1200 C.2   1 SAM   0.9060 
  8 O      -56.9180    17.6160    35.3690 O.co2 1 SAM  -0.9000 
  9 CB     -58.5950    16.9650    32.6680 C.3   1 SAM  -0.1600 
 10 HB1    -59.5186    16.9497    32.0894 H     1 SAM   0.0800 
 11 HB2    -58.2712    15.9426    32.8627 H     1 SAM   0.0800 
 12 CG     -57.5300    17.6000    31.7770 C.3   1 SAM  -0.1525 
 13 HG1    -56.5925    17.6177    32.3328 H     1 SAM   0.0800 
 14 HG2    -57.8407    18.6212    31.5561 H     1 SAM   0.0800 
 15 SD     -57.2240    16.7290    30.1600 S.3   1 SAM   0.9775 
 16 CE     -55.5220    17.3570    30.0340 C.3   1 SAM  -0.2325 
 17 HE1    -54.8661    16.7581    30.6658 H     1 SAM   0.0800 
 18 HE2    -55.4929    18.3961    30.3619 H     1 SAM   0.0800 
 19 HE3    -55.1869    17.2932    28.9988 H     1 SAM   0.0800 
 20 C5'    -58.0520    17.8970    29.0290 C.3   1 SAM  -0.1525 
 21 H5'1   -57.7619    17.6765    28.0017 H     1 SAM   0.0800 
 22 H5'2   -57.7575    18.9163    29.2789 H     1 SAM   0.0800 
 23 C4'    -59.5620    17.7540    29.1730 C.3   1 SAM   0.2000 
 24 H4'    -59.7885    17.8623    30.2337 H     1 SAM   0.0800 
 25 O4'    -60.1810    18.7480    28.3630 O.3   1 SAM  -0.5600 
 26 C3'    -60.0980    16.4020    28.7310 C.3   1 SAM   0.2000 
 27 H3'    -59.3062    15.6611    28.6208 H     1 SAM   0.0800 
 28 O3'    -61.0020    15.8560    29.6710 O.3   1 SAM  -0.6800 
 29 H3'    -61.3283    15.0274    29.3125 H     1 SAM   0.4000 
 30 C2'    -60.8330    16.7320    27.4390 C.3   1 SAM   0.2000 
 31 H2'    -60.1899    16.5793    26.5723 H     1 SAM   0.0800 
 32 O2'    -61.9290    15.9210    27.1390 O.3   1 SAM  -0.6800 
 33 H2'    -62.5542    15.9982    27.8634 H     1 SAM   0.4000 
 34 C1'    -61.2810    18.1560    27.7000 C.3   1 SAM   0.5691 
 35 H1'    -62.2165    18.1400    28.2592 H     1 SAM   0.0800 
 36 OXT    -58.2880    16.0860    35.8470 O.co2 1 SAM  -0.9000 
 37 N1     -64.5530    21.5030    25.6820 N.2   1 SAM  -0.6610 
 38 C2     -64.6130    20.8660    26.9070 C.2   1 SAM   0.6010 
 39 H2     -65.4374    21.0782    27.5716 H     1 SAM   0.0600 
 40 N3     -63.6380    19.9590    27.3040 N.2   1 SAM  -0.6610 
 41 C4     -62.6490    19.7410    26.4120 C.2   1 SAM   0.5000 
 42 C5     -62.6000    20.3330    25.1590 C.2   1 SAM   0.4500 
 43 C6     -63.5770    21.2470    24.7710 C.2   1 SAM   0.6110 
 44 N6     -63.5250    21.8430    23.5680 N.2   1 SAM  -0.2000 
 45 H62    -64.2405    22.5037    23.3004 H     1 SAM   0.4000 
 46 H61    -62.7704    21.6304    22.9313 H     1 SAM   0.4000 
 47 N7     -61.4880    19.9000    24.5230 N.2   1 SAM  -0.6960 
 48 C8     -60.8390    19.0420    25.3310 C.3   1 SAM   0.4551 
 49 H81    -59.8394    19.4181    25.5489 H     1 SAM   0.0800 
 50 H82    -60.7636    18.0648    24.8541 H     1 SAM   0.0800 
 51 N9     -61.5690    18.9440    26.4930 N.pl3 1 SAM  -0.7882 
@<TRIPOS>BOND
  1   1   2  1   
  2   1   3  1   
  3   1   4  1   
  4   1   5  1   
  5   5   6  1   
  6   5   7  1   
  7   5   9  1   
  8   7   8  ar  
  9   7  36  ar  
 10   9  10  1   
 11   9  11  1   
 12   9  12  1   
 13  12  13  1   
 14  12  14  1   
 15  12  15  1   
 16  15  16  1   
 17  15  20  1   
 18  16  17  1   
 19  16  18  1   
 20  16  19  1   
 21  20  21  1   
 22  20  22  1   
 23  20  23  1   
 24  23  24  1   
 25  23  25  1   
 26  23  26  1   
 27  25  34  1   
 28  26  27  1   
 29  26  28  1   
 30  26  30  1   
 31  28  29  1   
 32  30  31  1   
 33  30  32  1   
 34  30  34  1   
 35  32  33  1   
 36  34  35  1   
 37  34  51  1   
 38  37  38  2   
 39  37  43  1   
 40  38  39  1   
 41  38  40  1   
 42  40  41  2   
 43  41  42  1   
 44  41  51  1   
 45  42  43  1   
 46  42  47  2   
 47  43  44  2   
 48  44  45  1   
 49  44  46  1   
 50  47  48  1   
 51  48  49  1   
 52  48  50  1   
 53  48  51  1   
@<TRIPOS>SUBSTRUCTURE
  1 SAM  25 GROUP 4 B **** 0

# MOE 2022.02 (io_trps.svl 2020.11)
