# created with PyMOL 2.5.0
@<TRIPOS>MOLECULE
6IX5
27 29 1                 
SMALL
USER_CHARGES
@<TRIPOS>ATOM
1	   N	-11.808	-1.177	13.133	N.3	1	SAM401	0.000	
2	  CA	-12.278	0.187	13.149	C.3	1	SAM401	0.000	
3	   C	-11.855	0.788	14.497	C.2	1	SAM401	0.000	
4	   O	-11.109	1.767	14.619	O.co2	1	SAM401	0.000	
5	  CB	-13.800	0.167	12.935	C.3	1	SAM401	0.000	
6	  CG	-14.352	1.316	12.130	C.3	1	SAM401	0.000	
7	  SD	-16.082	1.098	11.624	S.3	1	SAM401	0.000	
8	  CE	-17.024	0.457	13.040	C.3	1	SAM401	0.000	
9	 C5'	-16.149	-0.241	10.388	C.3	1	SAM401	0.000	
10	 C4'	-15.058	-0.126	9.328	C.3	1	SAM401	0.000	
11	 O4'	-15.256	-1.164	8.372	O.3	1	SAM401	0.000	
12	 C3'	-15.110	1.215	8.570	C.3	1	SAM401	0.000	
13	 O3'	-13.837	1.854	8.516	O.3	1	SAM401	0.000	
14	 C2'	-15.586	0.840	7.175	C.3	1	SAM401	0.000	
15	 O2'	-15.098	1.590	6.069	O.3	1	SAM401	0.000	
16	 C1'	-15.019	-0.563	7.089	C.3	1	SAM401	0.000	
17	 OXT	-12.204	0.253	15.542	O.co2	1	SAM401	0.000	
18	  N1	-14.179	-4.140	3.475	N.2	1	SAM401	0.000	
19	  C2	-13.269	-3.469	4.246	C.2	1	SAM401	0.000	
20	  N3	-13.653	-2.528	5.157	N.2	1	SAM401	0.000	
21	  C4	-14.991	-2.262	5.273	C.2	1	SAM401	0.000	
22	  C5	-15.943	-2.915	4.492	C.2	1	SAM401	0.000	
23	  C6	-15.534	-3.890	3.578	C.2	1	SAM401	0.000	
24	  N6	-16.412	-4.568	2.795	N.pl3	1	SAM401	0.000	
25	  N7	-17.187	-2.440	4.863	N.2	1	SAM401	0.000	
26	  C8	-17.023	-1.511	5.832	C.2	1	SAM401	0.000	
27	  N9	-15.675	-1.394	6.084	N.2	1	SAM401	0.000	
@<TRIPOS>BOND
1 1 2 1
2 2 3 1
3 2 5 1
4 3 4 ar
5 3 17 ar
6 5 6 1
7 6 7 1
8 7 8 1
9 7 9 1
10 9 10 1
11 10 11 1
12 10 12 1
13 11 16 1
14 12 13 1
15 12 14 1
16 14 15 1
17 14 16 1
18 16 27 1
19 18 19 ar
20 18 23 ar
21 19 20 ar
22 20 21 ar
23 21 22 ar
24 21 27 ar
25 22 23 ar
26 22 25 ar
27 23 24 1
28 25 26 ar
29 26 27 ar
@<TRIPOS>SUBSTRUCTURE
1	SAM401	1	GROUP	1 A	SAM
