# created with PyMOL 2.4.0
@<TRIPOS>MOLECULE
temp
50 52 1                 
SMALL
USER_CHARGES
@<TRIPOS>ATOM
1	   N	-11.808	-1.177	13.133	N.4	1	SAM1	0.000	
2	  CA	-12.278	0.187	13.149	C.3	1	SAM1	0.000	
3	   C	-11.855	0.788	14.497	C.2	1	SAM1	0.000	
4	   O	-11.109	1.767	14.619	O.co2	1	SAM1	0.000	
5	  CB	-13.800	0.167	12.935	C.3	1	SAM1	0.000	
6	  CG	-14.352	1.316	12.130	C.3	1	SAM1	0.000	
7	  SD	-16.082	1.098	11.624	S.3	1	SAM1	0.000	
8	  CE	-17.024	0.457	13.040	C.3	1	SAM1	0.000	
9	 C5'	-16.149	-0.241	10.388	C.3	1	SAM1	0.000	
10	 C4'	-15.058	-0.126	9.328	C.3	1	SAM1	0.000	
11	 O4'	-15.256	-1.164	8.372	O.3	1	SAM1	0.000	
12	 C3'	-15.110	1.215	8.570	C.3	1	SAM1	0.000	
13	 O3'	-13.837	1.854	8.516	O.3	1	SAM1	0.000	
14	 C2'	-15.586	0.840	7.175	C.3	1	SAM1	0.000	
15	 O2'	-15.098	1.590	6.069	O.3	1	SAM1	0.000	
16	 C1'	-15.019	-0.563	7.089	C.3	1	SAM1	0.000	
17	 OXT	-12.204	0.253	15.542	O.co2	1	SAM1	0.000	
18	  N1	-14.179	-4.140	3.475	N.2	1	SAM1	0.000	
19	  C2	-13.269	-3.469	4.246	C.2	1	SAM1	0.000	
20	  N3	-13.653	-2.528	5.157	N.2	1	SAM1	0.000	
21	  C4	-14.991	-2.262	5.273	C.2	1	SAM1	0.000	
22	  C5	-15.943	-2.915	4.492	C.2	1	SAM1	0.000	
23	  C6	-15.534	-3.890	3.578	C.2	1	SAM1	0.000	
24	  N6	-16.412	-4.568	2.795	N.pl3	1	SAM1	0.000	
25	  N7	-17.187	-2.440	4.863	N.2	1	SAM1	0.000	
26	  C8	-17.023	-1.511	5.832	C.2	1	SAM1	0.000	
27	  N9	-15.675	-1.394	6.084	N.2	1	SAM1	0.000	
28	  HA	-11.855	0.804	12.357	 H	1	SAM1	0.000	
29	 HB1	-14.278	0.182	13.914	 H	1	SAM1	0.000	
30	 HB2	-14.056	-0.759	12.420	 H	1	SAM1	0.000	
31	 HG1	-13.744	1.429	11.233	 H	1	SAM1	0.000	
32	 HG2	-14.283	2.222	12.733	 H	1	SAM1	0.000	
33	 HE1	-17.036	1.202	13.836	 H	1	SAM1	0.000	
34	 HE2	-16.555	-0.457	13.405	 H	1	SAM1	0.000	
35	 HE3	-18.046	0.242	12.729	 H	1	SAM1	0.000	
36	  H1	-12.238	-1.690	13.889	 H	1	SAM1	0.000	
37	  H2	-10.804	-1.189	13.246	 H	1	SAM1	0.000	
38	  H2	-12.218	-3.690	4.130	 H	1	SAM1	0.000	
39	  H3	-12.053	-1.607	12.253	 H	1	SAM1	0.000	
40	  H8	-17.811	-0.958	6.322	 H	1	SAM1	0.000	
41	 H1'	-13.967	-0.497	6.811	 H	1	SAM1	0.000	
42	 H2'	-16.661	0.998	7.088	 H	1	SAM1	0.000	
43	 H2'	-15.370	2.502	6.194	 H	1	SAM1	0.000	
44	 H3'	-15.767	1.930	9.066	 H	1	SAM1	0.000	
45	 H3'	-13.941	2.665	8.013	 H	1	SAM1	0.000	
46	 H4'	-14.096	-0.198	9.835	 H	1	SAM1	0.000	
47	 H61	-17.401	-4.375	2.861	 H	1	SAM1	0.000	
48	 H62	-16.076	-5.266	2.147	 H	1	SAM1	0.000	
49	H5'1	-17.120	-0.209	9.893	 H	1	SAM1	0.000	
50	H5'2	-16.035	-1.195	10.903	 H	1	SAM1	0.000	
@<TRIPOS>BOND
1 1 2 1
2 1 36 1
3 1 37 1
4 1 39 1
5 2 3 1
6 2 5 1
7 2 28 1
8 3 4 ar
9 3 17 ar
10 5 6 1
11 5 29 1
12 5 30 1
13 6 7 1
14 6 31 1
15 6 32 1
16 7 8 1
17 7 9 1
18 8 33 1
19 8 34 1
20 8 35 1
21 9 10 1
22 9 49 1
23 9 50 1
24 10 11 1
25 10 12 1
26 10 46 1
27 11 16 1
28 12 13 1
29 12 14 1
30 12 44 1
31 13 45 1
32 14 15 1
33 14 16 1
34 14 42 1
35 15 43 1
36 16 27 1
37 16 41 1
38 18 19 ar
39 18 23 ar
40 19 20 ar
41 19 38 1
42 20 21 ar
43 21 22 ar
44 21 27 ar
45 22 23 ar
46 22 25 ar
47 23 24 1
48 24 47 1
49 24 48 1
50 25 26 ar
51 26 27 ar
52 26 40 1
@<TRIPOS>SUBSTRUCTURE
1	SAM1	1	GROUP	1 A	SAM
