# created with PyMOL 2.4.0
@<TRIPOS>MOLECULE
temp
50 52 1                 
SMALL
USER_CHARGES
@<TRIPOS>ATOM
1	   N	-58.936	19.061	33.967	N.4	1	SAM1	0.000	
2	  CA	-58.939	17.587	34.033	C.3	1	SAM1	0.000	
3	   C	-57.980	17.060	35.120	C.2	1	SAM1	0.000	
4	   O	-56.918	17.616	35.369	O.co2	1	SAM1	0.000	
5	  CB	-58.595	16.965	32.668	C.3	1	SAM1	0.000	
6	  CG	-57.530	17.600	31.777	C.3	1	SAM1	0.000	
7	  SD	-57.224	16.729	30.160	S.3	1	SAM1	0.000	
8	  CE	-55.522	17.357	30.034	C.3	1	SAM1	0.000	
9	 C5'	-58.052	17.897	29.029	C.3	1	SAM1	0.000	
10	 C4'	-59.562	17.754	29.173	C.3	1	SAM1	0.000	
11	 O4'	-60.181	18.748	28.363	O.3	1	SAM1	0.000	
12	 C3'	-60.098	16.402	28.731	C.3	1	SAM1	0.000	
13	 O3'	-61.002	15.856	29.671	O.3	1	SAM1	0.000	
14	 C2'	-60.833	16.732	27.439	C.3	1	SAM1	0.000	
15	 O2'	-61.929	15.921	27.139	O.3	1	SAM1	0.000	
16	 C1'	-61.281	18.156	27.700	C.3	1	SAM1	0.000	
17	 OXT	-58.288	16.086	35.847	O.co2	1	SAM1	0.000	
18	  N1	-64.553	21.503	25.682	N.2	1	SAM1	0.000	
19	  C2	-64.613	20.866	26.907	C.2	1	SAM1	0.000	
20	  N3	-63.638	19.959	27.304	N.2	1	SAM1	0.000	
21	  C4	-62.649	19.741	26.412	C.2	1	SAM1	0.000	
22	  C5	-62.600	20.333	25.159	C.2	1	SAM1	0.000	
23	  C6	-63.577	21.247	24.771	C.2	1	SAM1	0.000	
24	  N6	-63.525	21.843	23.568	N.pl3	1	SAM1	0.000	
25	  N7	-61.488	19.900	24.523	N.2	1	SAM1	0.000	
26	  C8	-60.839	19.042	25.331	C.2	1	SAM1	0.000	
27	  N9	-61.569	18.944	26.493	N.2	1	SAM1	0.000	
28	  HA	-59.951	17.285	34.304	 H	1	SAM1	0.000	
29	 HB1	-59.519	16.950	32.089	 H	1	SAM1	0.000	
30	 HB2	-58.271	15.943	32.863	 H	1	SAM1	0.000	
31	 HG1	-56.592	17.618	32.333	 H	1	SAM1	0.000	
32	 HG2	-57.841	18.621	31.556	 H	1	SAM1	0.000	
33	 HE1	-54.866	16.758	30.666	 H	1	SAM1	0.000	
34	 HE2	-55.493	18.396	30.362	 H	1	SAM1	0.000	
35	 HE3	-55.187	17.293	28.999	 H	1	SAM1	0.000	
36	  H1	-58.013	19.385	33.717	 H	1	SAM1	0.000	
37	  H2	-59.194	19.439	34.868	 H	1	SAM1	0.000	
38	  H2	-65.437	21.078	27.572	 H	1	SAM1	0.000	
39	  H3	-59.600	19.368	33.271	 H	1	SAM1	0.000	
40	  H8	-59.917	18.526	25.109	 H	1	SAM1	0.000	
41	 H1'	-62.216	18.140	28.259	 H	1	SAM1	0.000	
42	 H2'	-60.190	16.579	26.572	 H	1	SAM1	0.000	
43	 H2'	-61.609	15.021	27.050	 H	1	SAM1	0.000	
44	 H3'	-59.306	15.661	28.621	 H	1	SAM1	0.000	
45	 H3'	-61.328	15.027	29.312	 H	1	SAM1	0.000	
46	 H4'	-59.789	17.862	30.234	 H	1	SAM1	0.000	
47	 H61	-62.770	21.630	22.931	 H	1	SAM1	0.000	
48	 H62	-64.241	22.504	23.300	 H	1	SAM1	0.000	
49	H5'1	-57.762	17.677	28.002	 H	1	SAM1	0.000	
50	H5'2	-57.757	18.916	29.279	 H	1	SAM1	0.000	
@<TRIPOS>BOND
1 1 2 1
2 1 36 1
3 1 37 1
4 1 39 1
5 2 3 1
6 2 5 1
7 2 28 1
8 3 4 ar
9 3 17 ar
10 5 6 1
11 5 29 1
12 5 30 1
13 6 7 1
14 6 31 1
15 6 32 1
16 7 8 1
17 7 9 1
18 8 33 1
19 8 34 1
20 8 35 1
21 9 10 1
22 9 49 1
23 9 50 1
24 10 11 1
25 10 12 1
26 10 46 1
27 11 16 1
28 12 13 1
29 12 14 1
30 12 44 1
31 13 45 1
32 14 15 1
33 14 16 1
34 14 42 1
35 15 43 1
36 16 27 1
37 16 41 1
38 18 19 ar
39 18 23 ar
40 19 20 ar
41 19 38 1
42 20 21 ar
43 21 22 ar
44 21 27 ar
45 22 23 ar
46 22 25 ar
47 23 24 1
48 24 47 1
49 24 48 1
50 25 26 ar
51 26 27 ar
52 26 40 1
@<TRIPOS>SUBSTRUCTURE
1	SAM1	1	GROUP	1 B	SAM
