@<TRIPOS>MOLECULE
7BJ1.A
57 59 1 0 0 
SMALL
USER_CHARGES


@<TRIPOS>ATOM
  1 N1      16.9020   -15.1790     7.9570 N.am  1 QKT  -0.5470 
  2 H1      16.6927   -14.2748     7.5587 H     1 QKT   0.3700 
  3 C2      17.0760   -15.2140     9.3030 C.ar  1 QKT   0.1170 
  4 C3      17.6250   -16.3100     9.9720 C.ar  1 QKT  -0.1500 
  5 H3      17.9277   -17.1861     9.4177 H     1 QKT   0.1500 
  6 C4      17.7820   -16.2710    11.3610 C.ar  1 QKT  -0.1500 
  7 H4      18.2080   -17.1180    11.8782 H     1 QKT   0.1500 
  8 C5      17.3890   -15.1380    12.0840 C.ar  1 QKT  -0.1500 
  9 H5      17.4989   -15.1163    13.1582 H     1 QKT   0.1500 
 10 C6      16.8550   -14.0370    11.4130 C.ar  1 QKT  -0.1500 
 11 H6      16.5617   -13.1551    11.9630 H     1 QKT   0.1500 
 12 C7      16.7030   -14.0830    10.0310 C.ar  1 QKT  -0.1500 
 13 H7      16.2898   -13.2301     9.5131 H     1 QKT   0.1500 
 14 C8      16.9750   -16.2020     7.0940 C.2   1 QKT   0.7800 
 15 O9      17.2270   -17.3750     7.3510 O.2   1 QKT  -0.5700 
 16 O10     16.6950   -15.8670     5.7120 O.3   1 QKT  -0.4300 
 17 C11     17.2580   -16.6660     4.6740 C.3   1 QKT   0.1200 
 18 H111    16.5866   -16.6891     3.8156 H     1 QKT   0.0800 
 19 H112    17.4232   -17.6817     5.0335 H     1 QKT   0.0800 
 20 C12     18.5860   -16.0300     4.2800 C.3   1 QKT   0.2000 
 21 H12     18.3868   -14.9585     4.2602 H     1 QKT   0.0800 
 22 O13     19.6410   -16.2420     5.2340 O.3   1 QKT  -0.4300 
 23 C14     19.8410   -17.5410     5.8680 C.2   1 QKT   0.7800 
 24 O15     19.5880   -18.5860     5.2800 O.2   1 QKT  -0.5700 
 25 N16     20.3470   -17.4500     7.1030 N.am  1 QKT  -0.5470 
 26 H16     20.4077   -16.5158     7.4821 H     1 QKT   0.3700 
 27 C17     20.7900   -18.4430     7.9160 C.ar  1 QKT   0.1170 
 28 C18     20.9160   -18.1410     9.2720 C.ar  1 QKT  -0.1500 
 29 H18     20.6564   -17.1545     9.6267 H     1 QKT   0.1500 
 30 C19     21.3750   -19.1030    10.1760 C.ar  1 QKT  -0.1500 
 31 H19     21.4654   -18.8627    11.2250 H     1 QKT   0.1500 
 32 C20     21.7160   -20.3760     9.7160 C.ar  1 QKT  -0.1500 
 33 H20     22.0692   -21.1249    10.4093 H     1 QKT   0.1500 
 34 C21     21.6000   -20.6790     8.3610 C.ar  1 QKT  -0.1500 
 35 H21     21.8616   -21.6653     8.0071 H     1 QKT   0.1500 
 36 C22     21.1480   -19.7160     7.4590 C.ar  1 QKT  -0.1500 
 37 H22     21.0744   -19.9529     6.4079 H     1 QKT   0.1500 
 38 C23     19.0400   -16.4870     2.9020 C.3   1 QKT   0.3430 
 39 H231    18.3747   -16.0907     2.1349 H     1 QKT   0.0800 
 40 H232    19.0477   -17.5757     2.8491 H     1 QKT   0.0800 
 41 N24     20.3970   -15.9600     2.7190 N.4   1 QKT  -0.9590 
 42 H24     20.6800   -15.4604     3.5499 H     1 QKT   0.4500 
 43 C25     20.4350   -15.0110     1.5940 C.3   1 QKT   0.3430 
 44 H251    19.7169   -14.2097     1.7681 H     1 QKT   0.0800 
 45 H252    20.1826   -15.5305     0.6696 H     1 QKT   0.0800 
 46 C26     21.8380   -14.4240     1.4830 C.3   1 QKT  -0.1600 
 47 H261    22.0451   -13.8289     2.3724 H     1 QKT   0.0800 
 48 H262    21.8873   -13.7869     0.6000 H     1 QKT   0.0800 
 49 C27     22.8930   -15.5230     1.3630 C.3   1 QKT  -0.1600 
 50 H271    23.8842   -15.0730     1.4181 H     1 QKT   0.0800 
 51 H272    22.7755   -16.0266     0.4035 H     1 QKT   0.0800 
 52 C28     22.7470   -16.5450     2.4830 C.3   1 QKT  -0.1600 
 53 H281    22.9634   -16.0698     3.4398 H     1 QKT   0.0800 
 54 H282    23.4445   -17.3664     2.3193 H     1 QKT   0.0800 
 55 C29     21.3230   -17.0820     2.4930 C.3   1 QKT   0.3430 
 56 H291    21.1018   -17.5529     1.5352 H     1 QKT   0.0800 
 57 H292    21.2130   -17.8150     3.2922 H     1 QKT   0.0800 
@<TRIPOS>BOND
  1   1   2  1   
  2   1   3  1   
  3   1  14  am  
  4   3   4  ar  
  5   3  12  ar  
  6   4   5  1   
  7   4   6  ar  
  8   6   7  1   
  9   6   8  ar  
 10   8   9  1   
 11   8  10  ar  
 12  10  11  1   
 13  10  12  ar  
 14  12  13  1   
 15  14  15  2   
 16  14  16  1   
 17  16  17  1   
 18  17  18  1   
 19  17  19  1   
 20  17  20  1   
 21  20  21  1   
 22  20  22  1   
 23  20  38  1   
 24  22  23  1   
 25  23  24  2   
 26  23  25  am  
 27  25  26  1   
 28  25  27  1   
 29  27  28  ar  
 30  27  36  ar  
 31  28  29  1   
 32  28  30  ar  
 33  30  31  1   
 34  30  32  ar  
 35  32  33  1   
 36  32  34  ar  
 37  34  35  1   
 38  34  36  ar  
 39  36  37  1   
 40  38  39  1   
 41  38  40  1   
 42  38  41  1   
 43  41  42  1   
 44  41  43  1   
 45  41  55  1   
 46  43  44  1   
 47  43  45  1   
 48  43  46  1   
 49  46  47  1   
 50  46  48  1   
 51  46  49  1   
 52  49  50  1   
 53  49  51  1   
 54  49  52  1   
 55  52  53  1   
 56  52  54  1   
 57  52  55  1   
 58  55  56  1   
 59  55  57  1   
@<TRIPOS>SUBSTRUCTURE
  1 QKT  23 GROUP 4 A **** 0

# MOE 2022.02 (io_trps.svl 2020.11)
