# created with PyMOL 2.5.0
@<TRIPOS>MOLECULE
7BJ1
29 31 1                 
SMALL
USER_CHARGES
@<TRIPOS>ATOM
1	  N1	16.902	-15.179	7.957	N.pl3	1	QKT502	0.000	
2	  C2	17.076	-15.214	9.303	C.2	1	QKT502	0.000	
3	  C3	17.625	-16.310	9.972	C.2	1	QKT502	0.000	
4	  C4	17.782	-16.271	11.361	C.2	1	QKT502	0.000	
5	  C5	17.389	-15.138	12.084	C.2	1	QKT502	0.000	
6	  C6	16.855	-14.037	11.413	C.2	1	QKT502	0.000	
7	  C7	16.703	-14.083	10.031	C.2	1	QKT502	0.000	
8	  C8	16.975	-16.202	7.094	C.2	1	QKT502	0.000	
9	  O9	17.227	-17.375	7.351	O.co2	1	QKT502	0.000	
10	 O10	16.695	-15.867	5.712	O.3	1	QKT502	0.000	
11	 C11	17.258	-16.666	4.674	C.3	1	QKT502	0.000	
12	 C12	18.586	-16.030	4.280	C.3	1	QKT502	0.000	
13	 O13	19.641	-16.242	5.234	O.3	1	QKT502	0.000	
14	 C14	19.841	-17.541	5.868	C.2	1	QKT502	0.000	
15	 O15	19.588	-18.586	5.280	O.co2	1	QKT502	0.000	
16	 N16	20.347	-17.450	7.103	N.pl3	1	QKT502	0.000	
17	 C17	20.790	-18.443	7.916	C.2	1	QKT502	0.000	
18	 C18	20.916	-18.141	9.272	C.2	1	QKT502	0.000	
19	 C19	21.375	-19.103	10.176	C.2	1	QKT502	0.000	
20	 C20	21.716	-20.376	9.716	C.2	1	QKT502	0.000	
21	 C21	21.600	-20.679	8.361	C.2	1	QKT502	0.000	
22	 C22	21.148	-19.716	7.459	C.2	1	QKT502	0.000	
23	 C23	19.040	-16.487	2.902	C.3	1	QKT502	0.000	
24	 N24	20.397	-15.960	2.719	N.3	1	QKT502	0.000	
25	 C25	20.435	-15.011	1.594	C.3	1	QKT502	0.000	
26	 C26	21.838	-14.424	1.483	C.3	1	QKT502	0.000	
27	 C27	22.893	-15.523	1.363	C.3	1	QKT502	0.000	
28	 C28	22.747	-16.545	2.483	C.3	1	QKT502	0.000	
29	 C29	21.323	-17.082	2.493	C.3	1	QKT502	0.000	
@<TRIPOS>BOND
1 1 2 1
2 1 8 1
3 2 3 ar
4 2 7 ar
5 3 4 ar
6 4 5 ar
7 5 6 ar
8 6 7 ar
9 8 9 2
10 8 10 1
11 10 11 1
12 11 12 1
13 12 13 1
14 12 23 1
15 13 14 1
16 14 15 2
17 14 16 1
18 16 17 1
19 17 18 ar
20 17 22 ar
21 18 19 ar
22 19 20 ar
23 20 21 ar
24 21 22 ar
25 23 24 1
26 24 25 1
27 24 29 1
28 25 26 1
29 26 27 1
30 27 28 1
31 28 29 1
@<TRIPOS>SUBSTRUCTURE
1	QKT502	1	GROUP	1 A	QKT
