# created with PyMOL 2.5.0
@<TRIPOS>MOLECULE
7BJ1
27 29 1                 
SMALL
USER_CHARGES
@<TRIPOS>ATOM
1	   N	10.818	14.700	23.117	N.3	1	SAM501	0.000	
2	  CA	10.715	14.575	21.655	C.3	1	SAM501	0.000	
3	   C	9.711	15.579	21.111	C.2	1	SAM501	0.000	
4	   O	9.342	15.569	19.922	O.co2	1	SAM501	0.000	
5	  CB	10.337	13.146	21.258	C.3	1	SAM501	0.000	
6	  CG	11.566	12.225	21.071	C.3	1	SAM501	0.000	
7	  SD	12.520	12.738	19.592	S.3	1	SAM501	0.000	
8	  CE	12.706	11.146	18.741	C.3	1	SAM501	0.000	
9	 C5'	14.197	12.892	20.288	C.3	1	SAM501	0.000	
10	 C4'	14.405	14.127	21.173	C.3	1	SAM501	0.000	
11	 O4'	13.715	13.997	22.414	O.3	1	SAM501	0.000	
12	 C3'	15.871	14.330	21.565	C.3	1	SAM501	0.000	
13	 O3'	16.619	14.994	20.563	O.3	1	SAM501	0.000	
14	 C2'	15.760	15.114	22.858	C.3	1	SAM501	0.000	
15	 O2'	15.382	16.448	22.543	O.3	1	SAM501	0.000	
16	 C1'	14.538	14.467	23.474	C.3	1	SAM501	0.000	
17	 OXT	9.260	16.447	21.876	O.co2	1	SAM501	0.000	
18	  N1	16.230	12.860	28.101	N.2	1	SAM501	0.000	
19	  C2	16.131	14.152	27.636	C.2	1	SAM501	0.000	
20	  N3	15.654	14.404	26.367	N.2	1	SAM501	0.000	
21	  C4	15.309	13.337	25.600	C.2	1	SAM501	0.000	
22	  C5	15.406	12.023	26.056	C.2	1	SAM501	0.000	
23	  C6	15.885	11.775	27.335	C.2	1	SAM501	0.000	
24	  N6	15.995	10.539	27.846	N.pl3	1	SAM501	0.000	
25	  N7	14.994	11.202	25.054	N.2	1	SAM501	0.000	
26	  C8	14.645	11.968	23.999	C.2	1	SAM501	0.000	
27	  N9	14.831	13.285	24.327	N.2	1	SAM501	0.000	
@<TRIPOS>BOND
1 1 2 1
2 2 3 1
3 2 5 1
4 3 4 ar
5 3 17 ar
6 5 6 1
7 6 7 1
8 7 8 1
9 7 9 1
10 9 10 1
11 10 11 1
12 10 12 1
13 11 16 1
14 12 13 1
15 12 14 1
16 14 15 1
17 14 16 1
18 16 27 1
19 18 19 ar
20 18 23 ar
21 19 20 ar
22 20 21 ar
23 21 22 ar
24 21 27 ar
25 22 23 ar
26 22 25 ar
27 23 24 1
28 25 26 ar
29 26 27 ar
@<TRIPOS>SUBSTRUCTURE
1	SAM501	1	GROUP	1 A	SAM
