# created with PyMOL 2.4.0
@<TRIPOS>MOLECULE
temp
50 52 1                 
SMALL
USER_CHARGES
@<TRIPOS>ATOM
1	   N	10.818	14.700	23.117	N.4	1	SAM1	0.000	
2	  CA	10.715	14.575	21.655	C.3	1	SAM1	0.000	
3	   C	9.711	15.579	21.111	C.2	1	SAM1	0.000	
4	   O	9.342	15.569	19.922	O.co2	1	SAM1	0.000	
5	  CB	10.337	13.146	21.258	C.3	1	SAM1	0.000	
6	  CG	11.566	12.225	21.071	C.3	1	SAM1	0.000	
7	  SD	12.520	12.738	19.592	S.3	1	SAM1	0.000	
8	  CE	12.706	11.146	18.741	C.3	1	SAM1	0.000	
9	 C5'	14.197	12.892	20.288	C.3	1	SAM1	0.000	
10	 C4'	14.405	14.127	21.173	C.3	1	SAM1	0.000	
11	 O4'	13.715	13.997	22.414	O.3	1	SAM1	0.000	
12	 C3'	15.871	14.330	21.565	C.3	1	SAM1	0.000	
13	 O3'	16.619	14.994	20.563	O.3	1	SAM1	0.000	
14	 C2'	15.760	15.114	22.858	C.3	1	SAM1	0.000	
15	 O2'	15.382	16.448	22.543	O.3	1	SAM1	0.000	
16	 C1'	14.538	14.467	23.474	C.3	1	SAM1	0.000	
17	 OXT	9.260	16.447	21.876	O.co2	1	SAM1	0.000	
18	  N1	16.230	12.860	28.101	N.2	1	SAM1	0.000	
19	  C2	16.131	14.152	27.636	C.2	1	SAM1	0.000	
20	  N3	15.654	14.404	26.367	N.2	1	SAM1	0.000	
21	  C4	15.309	13.337	25.600	C.2	1	SAM1	0.000	
22	  C5	15.406	12.023	26.056	C.2	1	SAM1	0.000	
23	  C6	15.885	11.775	27.335	C.2	1	SAM1	0.000	
24	  N6	15.995	10.539	27.846	N.pl3	1	SAM1	0.000	
25	  N7	14.994	11.202	25.054	N.2	1	SAM1	0.000	
26	  C8	14.645	11.968	23.999	C.2	1	SAM1	0.000	
27	  N9	14.831	13.285	24.327	N.2	1	SAM1	0.000	
28	  HA	11.689	14.794	21.217	 H	1	SAM1	0.000	
29	 HB1	9.783	13.181	20.320	 H	1	SAM1	0.000	
30	 HB2	9.703	12.725	22.038	 H	1	SAM1	0.000	
31	 HG1	11.229	11.196	20.944	 H	1	SAM1	0.000	
32	 HG2	12.204	12.292	21.952	 H	1	SAM1	0.000	
33	 HE1	11.768	10.884	18.251	 H	1	SAM1	0.000	
34	 HE2	12.964	10.374	19.466	 H	1	SAM1	0.000	
35	 HE3	13.497	11.223	17.995	 H	1	SAM1	0.000	
36	  H1	9.921	14.499	23.536	 H	1	SAM1	0.000	
37	  H2	11.098	15.641	23.356	 H	1	SAM1	0.000	
38	  H2	16.429	14.974	28.270	 H	1	SAM1	0.000	
39	  H3	11.505	14.046	23.463	 H	1	SAM1	0.000	
40	  H8	14.279	11.602	23.051	 H	1	SAM1	0.000	
41	 H1'	14.075	15.227	24.104	 H	1	SAM1	0.000	
42	 H2'	16.667	15.120	23.463	 H	1	SAM1	0.000	
43	 H2'	16.105	16.847	22.054	 H	1	SAM1	0.000	
44	 H3'	16.420	13.396	21.686	 H	1	SAM1	0.000	
45	 H3'	17.511	15.113	20.898	 H	1	SAM1	0.000	
46	 H4'	14.036	14.960	20.574	 H	1	SAM1	0.000	
47	 H61	15.723	9.738	27.294	 H	1	SAM1	0.000	
48	 H62	16.350	10.410	28.783	 H	1	SAM1	0.000	
49	H5'1	14.906	12.942	19.462	 H	1	SAM1	0.000	
50	H5'2	14.400	12.005	20.888	 H	1	SAM1	0.000	
@<TRIPOS>BOND
1 1 2 1
2 1 36 1
3 1 37 1
4 1 39 1
5 2 3 1
6 2 5 1
7 2 28 1
8 3 4 ar
9 3 17 ar
10 5 6 1
11 5 29 1
12 5 30 1
13 6 7 1
14 6 31 1
15 6 32 1
16 7 8 1
17 7 9 1
18 8 33 1
19 8 34 1
20 8 35 1
21 9 10 1
22 9 49 1
23 9 50 1
24 10 11 1
25 10 12 1
26 10 46 1
27 11 16 1
28 12 13 1
29 12 14 1
30 12 44 1
31 13 45 1
32 14 15 1
33 14 16 1
34 14 42 1
35 15 43 1
36 16 27 1
37 16 41 1
38 18 19 ar
39 18 23 ar
40 19 20 ar
41 19 38 1
42 20 21 ar
43 21 22 ar
44 21 27 ar
45 22 23 ar
46 22 25 ar
47 23 24 1
48 24 47 1
49 24 48 1
50 25 26 ar
51 26 27 ar
52 26 40 1
@<TRIPOS>SUBSTRUCTURE
1	SAM1	1	GROUP	1 A	SAM
