@<TRIPOS>MOLECULE
7BJ1.A
51 53 1 0 0 
SMALL
USER_CHARGES


@<TRIPOS>ATOM
  1 N       10.8180    14.7000    23.1170 N.4   1 SAM  -0.8530 
  2 H1       9.9212    14.4993    23.5360 H     1 SAM   0.4500 
  3 H2      11.0981    15.6406    23.3556 H     1 SAM   0.4500 
  4 H3      11.5054    14.0460    23.4632 H     1 SAM   0.4500 
  5 CA      10.7150    14.5750    21.6550 C.3   1 SAM   0.3170 
  6 HA      11.6887    14.7941    21.2168 H     1 SAM   0.0800 
  7 C        9.7110    15.5790    21.1110 C.2   1 SAM   0.9060 
  8 O        9.3420    15.5690    19.9220 O.co2 1 SAM  -0.9000 
  9 CB      10.3370    13.1460    21.2580 C.3   1 SAM  -0.1600 
 10 HB1      9.7834    13.1812    20.3197 H     1 SAM   0.0800 
 11 HB2      9.7030    12.7250    22.0383 H     1 SAM   0.0800 
 12 CG      11.5660    12.2250    21.0710 C.3   1 SAM  -0.1525 
 13 HG1     11.2292    11.1962    20.9436 H     1 SAM   0.0800 
 14 HG2     12.2039    12.2920    21.9523 H     1 SAM   0.0800 
 15 SD      12.5200    12.7380    19.5920 S.3   1 SAM   0.9775 
 16 CE      12.7060    11.1460    18.7410 C.3   1 SAM  -0.2325 
 17 HE1     11.7683    10.8844    18.2506 H     1 SAM   0.0800 
 18 HE2     12.9644    10.3744    19.4662 H     1 SAM   0.0800 
 19 HE3     13.4970    11.2230    17.9950 H     1 SAM   0.0800 
 20 C5'     14.1970    12.8920    20.2880 C.3   1 SAM  -0.1525 
 21 H5'1    14.9058    12.9417    19.4615 H     1 SAM   0.0800 
 22 H5'2    14.3999    12.0048    20.8878 H     1 SAM   0.0800 
 23 C4'     14.4050    14.1270    21.1730 C.3   1 SAM   0.2000 
 24 H4'     14.0365    14.9599    20.5741 H     1 SAM   0.0800 
 25 O4'     13.7150    13.9970    22.4140 O.3   1 SAM  -0.5600 
 26 C3'     15.8710    14.3300    21.5650 C.3   1 SAM   0.2000 
 27 H3'     16.4205    13.3965    21.6864 H     1 SAM   0.0800 
 28 O3'     16.6190    14.9940    20.5630 O.3   1 SAM  -0.6800 
 29 H3'     17.5109    15.1132    20.8976 H     1 SAM   0.4000 
 30 C2'     15.7600    15.1140    22.8580 C.3   1 SAM   0.2000 
 31 H2'     16.6666    15.1197    23.4631 H     1 SAM   0.0800 
 32 O2'     15.3820    16.4480    22.5430 O.3   1 SAM  -0.6800 
 33 H2'     16.1052    16.8468    22.0536 H     1 SAM   0.4000 
 34 C1'     14.5380    14.4670    23.4740 C.3   1 SAM   0.5691 
 35 H1'     14.0749    15.2267    24.1037 H     1 SAM   0.0800 
 36 OXT      9.2600    16.4470    21.8760 O.co2 1 SAM  -0.9000 
 37 N1      16.2300    12.8600    28.1010 N.2   1 SAM  -0.6610 
 38 C2      16.1310    14.1520    27.6360 C.2   1 SAM   0.6010 
 39 H2      16.4291    14.9741    28.2697 H     1 SAM   0.0600 
 40 N3      15.6540    14.4040    26.3670 N.2   1 SAM  -0.6610 
 41 C4      15.3090    13.3370    25.6000 C.2   1 SAM   0.5000 
 42 C5      15.4060    12.0230    26.0560 C.2   1 SAM   0.4500 
 43 C6      15.8850    11.7750    27.3350 C.2   1 SAM   0.6110 
 44 N6      15.9950    10.5390    27.8460 N.2   1 SAM  -0.2000 
 45 H62     16.3496    10.4096    28.7828 H     1 SAM   0.4000 
 46 H61     15.7232     9.7382    27.2938 H     1 SAM   0.4000 
 47 N7      14.9940    11.2020    25.0540 N.2   1 SAM  -0.6960 
 48 C8      14.6450    11.9680    23.9990 C.3   1 SAM   0.4551 
 49 H81     13.5971    11.7965    23.7529 H     1 SAM   0.0800 
 50 H82     15.2662    11.7134    23.1403 H     1 SAM   0.0800 
 51 N9      14.8310    13.2850    24.3270 N.pl3 1 SAM  -0.7882 
@<TRIPOS>BOND
  1   1   2  1   
  2   1   3  1   
  3   1   4  1   
  4   1   5  1   
  5   5   6  1   
  6   5   7  1   
  7   5   9  1   
  8   7   8  ar  
  9   7  36  ar  
 10   9  10  1   
 11   9  11  1   
 12   9  12  1   
 13  12  13  1   
 14  12  14  1   
 15  12  15  1   
 16  15  16  1   
 17  15  20  1   
 18  16  17  1   
 19  16  18  1   
 20  16  19  1   
 21  20  21  1   
 22  20  22  1   
 23  20  23  1   
 24  23  24  1   
 25  23  25  1   
 26  23  26  1   
 27  25  34  1   
 28  26  27  1   
 29  26  28  1   
 30  26  30  1   
 31  28  29  1   
 32  30  31  1   
 33  30  32  1   
 34  30  34  1   
 35  32  33  1   
 36  34  35  1   
 37  34  51  1   
 38  37  38  2   
 39  37  43  1   
 40  38  39  1   
 41  38  40  1   
 42  40  41  2   
 43  41  42  1   
 44  41  51  1   
 45  42  43  1   
 46  42  47  2   
 47  43  44  2   
 48  44  45  1   
 49  44  46  1   
 50  47  48  1   
 51  48  49  1   
 52  48  50  1   
 53  48  51  1   
@<TRIPOS>SUBSTRUCTURE
  1 SAM  25 GROUP 4 A **** 0

# MOE 2022.02 (io_trps.svl 2020.11)
