# created with PyMOL 2.5.0
@<TRIPOS>MOLECULE
1I9G
27 29 1                 
SMALL
USER_CHARGES
@<TRIPOS>ATOM
1	   N	21.367	-8.821	19.034	N.3	1	SAM301	0.000	
2	  CA	21.116	-10.194	19.459	C.3	1	SAM301	0.000	
3	   C	22.454	-10.919	19.677	C.3	1	SAM301	0.000	
4	   O	23.526	-10.398	19.334	O.3	1	SAM301	0.000	
5	  CB	20.290	-10.915	18.369	C.3	1	SAM301	0.000	
6	  CG	18.787	-10.529	18.347	C.3	1	SAM301	0.000	
7	  SD	17.811	-11.571	17.184	S.3	1	SAM301	0.000	
8	  CE	18.218	-10.971	15.547	C.3	1	SAM301	0.000	
9	 C5'	16.137	-10.840	17.349	C.3	1	SAM301	0.000	
10	 C4'	15.618	-11.301	18.625	C.3	1	SAM301	0.000	
11	 O4'	14.569	-10.318	18.981	O.3	1	SAM301	0.000	
12	 C3'	14.894	-12.722	18.463	C.3	1	SAM301	0.000	
13	 O3'	15.380	-13.620	19.529	O.3	1	SAM301	0.000	
14	 C2'	13.419	-12.409	18.678	C.3	1	SAM301	0.000	
15	 O2'	12.673	-13.430	19.322	O.3	1	SAM301	0.000	
16	 C1'	13.421	-11.094	19.445	C.3	1	SAM301	0.000	
17	 OXT	22.424	-12.142	19.909	O.3	1	SAM301	0.000	
18	  N1	9.992	-8.012	21.991	N.2	1	SAM301	0.000	
19	  C2	10.930	-8.837	22.479	C.2	1	SAM301	0.000	
20	  N3	11.739	-9.666	21.809	N.2	1	SAM301	0.000	
21	  C4	11.492	-9.566	20.460	C.2	1	SAM301	0.000	
22	  C5	10.565	-8.769	19.823	C.2	1	SAM301	0.000	
23	  C6	9.770	-7.949	20.656	C.2	1	SAM301	0.000	
24	  N6	8.814	-7.126	20.164	N.pl3	1	SAM301	0.000	
25	  N7	10.573	-8.952	18.418	N.2	1	SAM301	0.000	
26	  C8	11.520	-9.839	18.243	C.2	1	SAM301	0.000	
27	  N9	12.113	-10.279	19.422	N.2	1	SAM301	0.000	
@<TRIPOS>BOND
1 1 2 1
2 2 3 1
3 2 5 1
4 3 4 1
5 3 17 1
6 5 6 1
7 6 7 1
8 7 8 1
9 7 9 1
10 9 10 1
11 10 11 1
12 10 12 1
13 11 16 1
14 12 13 1
15 12 14 1
16 14 15 1
17 14 16 1
18 16 27 1
19 18 19 ar
20 18 23 ar
21 19 20 ar
22 20 21 ar
23 21 22 ar
24 21 27 ar
25 22 23 ar
26 22 25 ar
27 23 24 1
28 25 26 ar
29 26 27 ar
@<TRIPOS>SUBSTRUCTURE
1	SAM301	1	GROUP	1 A	SAM
