# created with PyMOL 2.4.0
@<TRIPOS>MOLECULE
temp
50 52 1                 
SMALL
USER_CHARGES
@<TRIPOS>ATOM
1	   N	21.367	-8.821	19.034	N.4	1	SAM1	0.000	
2	  CA	21.116	-10.194	19.459	C.3	1	SAM1	0.000	
3	   C	22.454	-10.919	19.677	C.2	1	SAM1	0.000	
4	   O	23.526	-10.398	19.334	O.co2	1	SAM1	0.000	
5	  CB	20.290	-10.915	18.369	C.3	1	SAM1	0.000	
6	  CG	18.787	-10.529	18.347	C.3	1	SAM1	0.000	
7	  SD	17.811	-11.571	17.184	S.3	1	SAM1	0.000	
8	  CE	18.218	-10.971	15.547	C.3	1	SAM1	0.000	
9	 C5'	16.137	-10.840	17.349	C.3	1	SAM1	0.000	
10	 C4'	15.618	-11.301	18.625	C.3	1	SAM1	0.000	
11	 O4'	14.569	-10.318	18.981	O.3	1	SAM1	0.000	
12	 C3'	14.894	-12.722	18.463	C.3	1	SAM1	0.000	
13	 O3'	15.380	-13.620	19.529	O.3	1	SAM1	0.000	
14	 C2'	13.419	-12.409	18.678	C.3	1	SAM1	0.000	
15	 O2'	12.673	-13.430	19.322	O.3	1	SAM1	0.000	
16	 C1'	13.421	-11.094	19.445	C.3	1	SAM1	0.000	
17	 OXT	22.424	-12.142	19.909	O.co2	1	SAM1	0.000	
18	  N1	9.992	-8.012	21.991	N.2	1	SAM1	0.000	
19	  C2	10.930	-8.837	22.479	C.2	1	SAM1	0.000	
20	  N3	11.739	-9.666	21.809	N.2	1	SAM1	0.000	
21	  C4	11.492	-9.566	20.460	C.2	1	SAM1	0.000	
22	  C5	10.565	-8.769	19.823	C.2	1	SAM1	0.000	
23	  C6	9.770	-7.949	20.656	C.2	1	SAM1	0.000	
24	  N6	8.814	-7.126	20.164	N.pl3	1	SAM1	0.000	
25	  N7	10.573	-8.952	18.418	N.2	1	SAM1	0.000	
26	  C8	11.520	-9.839	18.243	C.2	1	SAM1	0.000	
27	  N9	12.113	-10.279	19.422	N.2	1	SAM1	0.000	
28	  HA	20.559	-10.197	20.396	 H	1	SAM1	0.000	
29	 HB1	20.364	-11.989	18.539	 H	1	SAM1	0.000	
30	 HB2	20.719	-10.670	17.397	 H	1	SAM1	0.000	
31	 HG1	18.698	-9.486	18.042	 H	1	SAM1	0.000	
32	 HG2	18.380	-10.650	19.351	 H	1	SAM1	0.000	
33	 HE1	19.213	-11.318	15.270	 H	1	SAM1	0.000	
34	 HE2	18.200	-9.881	15.545	 H	1	SAM1	0.000	
35	 HE3	17.489	-11.348	14.830	 H	1	SAM1	0.000	
36	  H1	21.883	-8.826	18.166	 H	1	SAM1	0.000	
37	  H2	21.905	-8.342	19.742	 H	1	SAM1	0.000	
38	  H2	11.048	-8.832	23.552	 H	1	SAM1	0.000	
39	  H3	20.487	-8.344	18.899	 H	1	SAM1	0.000	
40	  H8	11.815	-10.198	17.268	 H	1	SAM1	0.000	
41	 H1'	13.502	-11.342	20.503	 H	1	SAM1	0.000	
42	 H2'	12.899	-12.337	17.722	 H	1	SAM1	0.000	
43	 H2'	12.735	-14.220	18.781	 H	1	SAM1	0.000	
44	 H3'	15.081	-13.203	17.503	 H	1	SAM1	0.000	
45	 H3'	14.895	-14.445	19.457	 H	1	SAM1	0.000	
46	 H4'	16.417	-11.395	19.361	 H	1	SAM1	0.000	
47	 H61	8.648	-7.083	19.169	 H	1	SAM1	0.000	
48	 H62	8.267	-6.555	20.792	 H	1	SAM1	0.000	
49	H5'1	15.495	-11.178	16.535	 H	1	SAM1	0.000	
50	H5'2	16.197	-9.752	17.336	 H	1	SAM1	0.000	
@<TRIPOS>BOND
1 1 2 1
2 1 36 1
3 1 37 1
4 1 39 1
5 2 3 1
6 2 5 1
7 2 28 1
8 3 4 1
9 3 17 2
10 5 6 1
11 5 29 1
12 5 30 1
13 6 7 1
14 6 31 1
15 6 32 1
16 7 8 1
17 7 9 1
18 8 33 1
19 8 34 1
20 8 35 1
21 9 10 1
22 9 49 1
23 9 50 1
24 10 11 1
25 10 12 1
26 10 46 1
27 11 16 1
28 12 13 1
29 12 14 1
30 12 44 1
31 13 45 1
32 14 15 1
33 14 16 1
34 14 42 1
35 15 43 1
36 16 27 1
37 16 41 1
38 18 19 ar
39 18 23 ar
40 19 20 ar
41 19 38 1
42 20 21 ar
43 21 22 ar
44 21 27 ar
45 22 23 ar
46 22 25 ar
47 23 24 1
48 24 47 1
49 24 48 1
50 25 26 ar
51 26 27 ar
52 26 40 1
@<TRIPOS>SUBSTRUCTURE
1	SAM1	1	GROUP	1 A	SAM
