@<TRIPOS>MOLECULE
1I9G.A
54 56 1 0 0 
SMALL
USER_CHARGES


@<TRIPOS>ATOM
  1 N       21.3670    -8.8210    19.0340 N.4   1 SAM  -0.8530 
  2 H1      21.8832    -8.8263    18.1659 H     1 SAM   0.4500 
  3 H2      21.9046    -8.3422    19.7424 H     1 SAM   0.4500 
  4 H3      20.4870    -8.3440    18.8995 H     1 SAM   0.4500 
  5 CA      21.1160   -10.1940    19.4590 C.3   1 SAM   0.4230 
  6 HA      20.5589   -10.1974    20.3959 H     1 SAM   0.0800 
  7 C       22.4540   -10.9190    19.6770 C.3   1 SAM   0.4800 
  8 H       22.5848   -10.5257    20.6851 H     1 SAM   0.0800 
  9 O       23.5260   -10.3980    19.3340 O.3   1 SAM  -0.6800 
 10 H       24.2190   -10.7707    19.8840 H     1 SAM   0.4000 
 11 CB      20.2900   -10.9150    18.3690 C.3   1 SAM  -0.1600 
 12 HB1     20.3642   -11.9891    18.5390 H     1 SAM   0.0800 
 13 HB2     20.7195   -10.6704    17.3975 H     1 SAM   0.0800 
 14 CG      18.7870   -10.5290    18.3470 C.3   1 SAM  -0.1525 
 15 HG1     18.6979    -9.4864    18.0418 H     1 SAM   0.0800 
 16 HG2     18.3799   -10.6497    19.3509 H     1 SAM   0.0800 
 17 SD      17.8110   -11.5710    17.1840 S.3   1 SAM   0.9775 
 18 CE      18.2180   -10.9710    15.5470 C.3   1 SAM  -0.2325 
 19 HE1     19.2133   -11.3184    15.2698 H     1 SAM   0.0800 
 20 HE2     18.1998    -9.8812    15.5445 H     1 SAM   0.0800 
 21 HE3     17.4887   -11.3482    14.8301 H     1 SAM   0.0800 
 22 C5'     16.1370   -10.8400    17.3490 C.3   1 SAM  -0.1525 
 23 H5'1    15.4951   -11.1781    16.5355 H     1 SAM   0.0800 
 24 H5'2    16.1969    -9.7517    17.3363 H     1 SAM   0.0800 
 25 C4'     15.6180   -11.3010    18.6250 C.3   1 SAM   0.2000 
 26 H4'     16.4168   -11.3952    19.3606 H     1 SAM   0.0800 
 27 O4'     14.5690   -10.3180    18.9810 O.3   1 SAM  -0.5600 
 28 C3'     14.8940   -12.7220    18.4630 C.3   1 SAM   0.2000 
 29 H3'     15.0807   -13.2034    17.5030 H     1 SAM   0.0800 
 30 O3'     15.3800   -13.6200    19.5290 O.3   1 SAM  -0.6800 
 31 H3'     14.8946   -14.4451    19.4571 H     1 SAM   0.4000 
 32 C2'     13.4190   -12.4090    18.6780 C.3   1 SAM   0.2000 
 33 H2'     12.8994   -12.3374    17.7225 H     1 SAM   0.0800 
 34 O2'     12.6730   -13.4300    19.3220 O.3   1 SAM  -0.6800 
 35 H2'     13.0605   -13.5696    20.1892 H     1 SAM   0.4000 
 36 C1'     13.4210   -11.0940    19.4450 C.3   1 SAM   0.5691 
 37 H1'     13.5024   -11.3420    20.5033 H     1 SAM   0.0800 
 38 OXT     22.4240   -12.1420    19.9090 O.3   1 SAM  -0.6800 
 39 HXT     23.2575   -12.3797    20.3217 H     1 SAM   0.4000 
 40 N1       9.9920    -8.0120    21.9910 N.2   1 SAM  -0.6610 
 41 C2      10.9300    -8.8370    22.4790 C.2   1 SAM   0.6010 
 42 H2      11.0478    -8.8316    23.5525 H     1 SAM   0.0600 
 43 N3      11.7390    -9.6660    21.8090 N.2   1 SAM  -0.6610 
 44 C4      11.4920    -9.5660    20.4600 C.2   1 SAM   0.5000 
 45 C5      10.5650    -8.7690    19.8230 C.2   1 SAM   0.4500 
 46 C6       9.7700    -7.9490    20.6560 C.2   1 SAM   0.6110 
 47 N6       8.8140    -7.1260    20.1640 N.2   1 SAM  -0.2000 
 48 H62      8.2666    -6.5554    20.7924 H     1 SAM   0.4000 
 49 H61      8.6483    -7.0827    19.1686 H     1 SAM   0.4000 
 50 N7      10.5730    -8.9520    18.4180 N.2   1 SAM  -0.6960 
 51 C8      11.5200    -9.8390    18.2430 C.3   1 SAM   0.4551 
 52 H81     12.2933    -9.3946    17.6164 H     1 SAM   0.0800 
 53 H82     11.0907   -10.7016    17.7334 H     1 SAM   0.0800 
 54 N9      12.1130   -10.2790    19.4220 N.pl3 1 SAM  -0.7882 
@<TRIPOS>BOND
  1   1   2  1   
  2   1   3  1   
  3   1   4  1   
  4   1   5  1   
  5   5   6  1   
  6   5   7  1   
  7   5  11  1   
  8   7   8  1   
  9   7   9  1   
 10   7  38  1   
 11   9  10  1   
 12  11  12  1   
 13  11  13  1   
 14  11  14  1   
 15  14  15  1   
 16  14  16  1   
 17  14  17  1   
 18  17  18  1   
 19  17  22  1   
 20  18  19  1   
 21  18  20  1   
 22  18  21  1   
 23  22  23  1   
 24  22  24  1   
 25  22  25  1   
 26  25  26  1   
 27  25  27  1   
 28  25  28  1   
 29  27  36  1   
 30  28  29  1   
 31  28  30  1   
 32  28  32  1   
 33  30  31  1   
 34  32  33  1   
 35  32  34  1   
 36  32  36  1   
 37  34  35  1   
 38  36  37  1   
 39  36  54  1   
 40  38  39  1   
 41  40  41  2   
 42  40  46  1   
 43  41  42  1   
 44  41  43  1   
 45  43  44  2   
 46  44  45  1   
 47  44  54  1   
 48  45  46  1   
 49  45  50  2   
 50  46  47  2   
 51  47  48  1   
 52  47  49  1   
 53  50  51  1   
 54  51  52  1   
 55  51  53  1   
 56  51  54  1   
@<TRIPOS>SUBSTRUCTURE
  1 SAM  27 GROUP 4 A **** 0

# MOE 2022.02 (io_trps.svl 2020.11)
