# created with PyMOL 2.4.0
@<TRIPOS>MOLECULE
temp
50 52 1                 
SMALL
USER_CHARGES
@<TRIPOS>ATOM
1	   N	19.440	-14.676	23.006	N.4	1	SAM1	0.000	
2	  CA	19.655	-14.629	21.558	C.3	1	SAM1	0.000	
3	   C	20.649	-15.673	21.079	C.2	1	SAM1	0.000	
4	   O	20.997	-16.558	21.869	O.co2	1	SAM1	0.000	
5	  CB	20.044	-13.221	21.121	C.3	1	SAM1	0.000	
6	  CG	18.825	-12.310	20.869	C.3	1	SAM1	0.000	
7	  SD	17.779	-12.758	19.545	S.3	1	SAM1	0.000	
8	  CE	17.597	-11.376	18.589	C.3	1	SAM1	0.000	
9	 C5'	16.165	-12.976	20.157	C.3	1	SAM1	0.000	
10	 C4'	15.886	-14.145	21.087	C.3	1	SAM1	0.000	
11	 O4'	16.624	-14.004	22.303	O.3	1	SAM1	0.000	
12	 C3'	14.434	-14.280	21.571	C.3	1	SAM1	0.000	
13	 O3'	13.592	-14.833	20.537	O.3	1	SAM1	0.000	
14	 C2'	14.567	-15.161	22.770	C.3	1	SAM1	0.000	
15	 O2'	14.959	-16.494	22.436	O.3	1	SAM1	0.000	
16	 C1'	15.798	-14.456	23.388	C.3	1	SAM1	0.000	
17	 OXT	20.986	-15.610	19.887	O.co2	1	SAM1	0.000	
18	  N1	14.252	-12.940	28.030	N.2	1	SAM1	0.000	
19	  C2	14.347	-14.168	27.537	C.2	1	SAM1	0.000	
20	  N3	14.747	-14.443	26.295	N.2	1	SAM1	0.000	
21	  C4	15.078	-13.395	25.526	C.2	1	SAM1	0.000	
22	  C5	15.045	-12.033	26.006	C.2	1	SAM1	0.000	
23	  C6	14.592	-11.856	27.350	C.2	1	SAM1	0.000	
24	  N6	14.493	-10.648	27.913	N.pl3	1	SAM1	0.000	
25	  N7	15.376	-11.206	25.000	N.2	1	SAM1	0.000	
26	  C8	15.684	-11.981	23.958	C.2	1	SAM1	0.000	
27	  N9	15.463	-13.284	24.242	N.2	1	SAM1	0.000	
28	  HA	18.709	-14.882	21.079	 H	1	SAM1	0.000	
29	 HB1	20.622	-13.290	20.200	 H	1	SAM1	0.000	
30	 HB2	20.658	-12.772	21.902	 H	1	SAM1	0.000	
31	 HG1	19.198	-11.305	20.671	 H	1	SAM1	0.000	
32	 HG2	18.224	-12.302	21.778	 H	1	SAM1	0.000	
33	 HE1	18.554	-11.120	18.134	 H	1	SAM1	0.000	
34	 HE2	17.257	-10.547	19.210	 H	1	SAM1	0.000	
35	 HE3	16.863	-11.569	17.807	 H	1	SAM1	0.000	
36	  H1	20.301	-14.446	23.482	 H	1	SAM1	0.000	
37	  H2	19.146	-15.605	23.273	 H	1	SAM1	0.000	
38	  H2	14.085	-14.995	28.180	 H	1	SAM1	0.000	
39	  H3	18.725	-14.010	23.262	 H	1	SAM1	0.000	
40	 H1'	16.295	-15.177	24.036	 H	1	SAM1	0.000	
41	 H2'	13.657	-15.265	23.361	 H	1	SAM1	0.000	
42	 H2'	14.243	-16.890	21.934	 H	1	SAM1	0.000	
43	 H3'	13.952	-13.333	21.816	 H	1	SAM1	0.000	
44	 H3'	12.713	-14.943	20.906	 H	1	SAM1	0.000	
45	 H4'	16.157	-15.006	20.476	 H	1	SAM1	0.000	
46	 H61	14.742	-9.823	27.386	 H	1	SAM1	0.000	
47	 H62	14.169	-10.560	28.865	 H	1	SAM1	0.000	
48	 H82	15.069	-11.693	23.105	 H	1	SAM1	0.000	
49	H5'1	15.508	-13.089	19.295	 H	1	SAM1	0.000	
50	H5'2	15.902	-12.067	20.698	 H	1	SAM1	0.000	
@<TRIPOS>BOND
1 1 2 1
2 1 36 1
3 1 37 1
4 1 39 1
5 2 3 1
6 2 5 1
7 2 28 1
8 3 4 ar
9 3 17 ar
10 5 6 1
11 5 29 1
12 5 30 1
13 6 7 1
14 6 31 1
15 6 32 1
16 7 8 1
17 7 9 1
18 8 33 1
19 8 34 1
20 8 35 1
21 9 10 1
22 9 49 1
23 9 50 1
24 10 11 1
25 10 12 1
26 10 45 1
27 11 16 1
28 12 13 1
29 12 14 1
30 12 43 1
31 13 44 1
32 14 15 1
33 14 16 1
34 14 41 1
35 15 42 1
36 16 27 1
37 16 40 1
38 18 19 ar
39 18 23 ar
40 19 20 ar
41 19 38 1
42 20 21 ar
43 21 22 ar
44 21 27 ar
45 22 23 ar
46 22 25 ar
47 23 24 1
48 24 46 1
49 24 47 1
50 25 26 ar
51 26 27 ar
52 26 48 1
@<TRIPOS>SUBSTRUCTURE
1	SAM1	1	GROUP	1 A	SAM
