@<TRIPOS>MOLECULE
7O2A.A
51 53 1 0 0 
SMALL
USER_CHARGES


@<TRIPOS>ATOM
  1 N       19.4400   -14.6760    23.0060 N.4   1 SAM  -0.8530 
  2 H1      20.3006   -14.4455    23.4818 H     1 SAM   0.4500 
  3 H2      19.1462   -15.6048    23.2728 H     1 SAM   0.4500 
  4 H3      18.7250   -14.0102    23.2620 H     1 SAM   0.4500 
  5 CA      19.6550   -14.6290    21.5580 C.3   1 SAM   0.3170 
  6 HA      18.7094   -14.8820    21.0786 H     1 SAM   0.0800 
  7 C       20.6490   -15.6730    21.0790 C.2   1 SAM   0.9060 
  8 O       20.9970   -16.5580    21.8690 O.co2 1 SAM  -0.9000 
  9 CB      20.0440   -13.2210    21.1210 C.3   1 SAM  -0.1600 
 10 HB1     20.6221   -13.2905    20.1996 H     1 SAM   0.0800 
 11 HB2     20.6577   -12.7720    21.9019 H     1 SAM   0.0800 
 12 CG      18.8250   -12.3100    20.8690 C.3   1 SAM  -0.1525 
 13 HG1     19.1978   -11.3050    20.6712 H     1 SAM   0.0800 
 14 HG2     18.2238   -12.3021    21.7781 H     1 SAM   0.0800 
 15 SD      17.7790   -12.7580    19.5450 S.3   1 SAM   0.9775 
 16 CE      17.5970   -11.3760    18.5890 C.3   1 SAM  -0.2325 
 17 HE1     18.5539   -11.1203    18.1340 H     1 SAM   0.0800 
 18 HE2     17.2568   -10.5471    19.2097 H     1 SAM   0.0800 
 19 HE3     16.8629   -11.5694    17.8068 H     1 SAM   0.0800 
 20 C5'     16.1650   -12.9760    20.1570 C.3   1 SAM  -0.1525 
 21 H5'1    15.5080   -13.0889    19.2946 H     1 SAM   0.0800 
 22 H5'2    15.9019   -12.0668    20.6976 H     1 SAM   0.0800 
 23 C4'     15.8860   -14.1450    21.0870 C.3   1 SAM   0.2000 
 24 H4'     16.1566   -15.0060    20.4758 H     1 SAM   0.0800 
 25 O4'     16.6240   -14.0040    22.3030 O.3   1 SAM  -0.5600 
 26 C3'     14.4340   -14.2800    21.5710 C.3   1 SAM   0.2000 
 27 H3'     13.9519   -13.3335    21.8155 H     1 SAM   0.0800 
 28 O3'     13.5920   -14.8330    20.5370 O.3   1 SAM  -0.6800 
 29 H3'     12.7128   -14.9429    20.9065 H     1 SAM   0.4000 
 30 C2'     14.5670   -15.1610    22.7700 C.3   1 SAM   0.2000 
 31 H2'     13.6571   -15.2654    23.3609 H     1 SAM   0.0800 
 32 O2'     14.9590   -16.4940    22.4360 O.3   1 SAM  -0.6800 
 33 H2'     14.2428   -16.8900    21.9341 H     1 SAM   0.4000 
 34 C1'     15.7980   -14.4560    23.3880 C.3   1 SAM   0.5691 
 35 H1'     16.2954   -15.1775    24.0362 H     1 SAM   0.0800 
 36 OXT     20.9860   -15.6100    19.8870 O.co2 1 SAM  -0.9000 
 37 N1      14.2520   -12.9400    28.0300 N.2   1 SAM  -0.6610 
 38 C2      14.3470   -14.1680    27.5370 C.2   1 SAM   0.6010 
 39 H2      14.0845   -14.9948    28.1804 H     1 SAM   0.0600 
 40 N3      14.7470   -14.4430    26.2950 N.2   1 SAM  -0.6610 
 41 C4      15.0780   -13.3950    25.5260 C.2   1 SAM   0.5000 
 42 C5      15.0450   -12.0330    26.0060 C.2   1 SAM   0.4500 
 43 C6      14.5920   -11.8560    27.3500 C.2   1 SAM   0.6110 
 44 N6      14.4930   -10.6480    27.9130 N.2   1 SAM  -0.2000 
 45 H62     14.1690   -10.5598    28.8655 H     1 SAM   0.4000 
 46 H61     14.7422    -9.8233    27.3860 H     1 SAM   0.4000 
 47 N7      15.3760   -11.2060    25.0000 N.2   1 SAM  -0.6960 
 48 C8      15.6840   -11.9810    23.9580 C.3   1 SAM   0.4551 
 49 H81     16.7365   -11.8436    23.7102 H     1 SAM   0.0800 
 50 H82     15.0694   -11.6927    23.1052 H     1 SAM   0.0800 
 51 N9      15.4630   -13.2840    24.2420 N.pl3 1 SAM  -0.7882 
@<TRIPOS>BOND
  1   1   2  1   
  2   1   3  1   
  3   1   4  1   
  4   1   5  1   
  5   5   6  1   
  6   5   7  1   
  7   5   9  1   
  8   7   8  ar  
  9   7  36  ar  
 10   9  10  1   
 11   9  11  1   
 12   9  12  1   
 13  12  13  1   
 14  12  14  1   
 15  12  15  1   
 16  15  16  1   
 17  15  20  1   
 18  16  17  1   
 19  16  18  1   
 20  16  19  1   
 21  20  21  1   
 22  20  22  1   
 23  20  23  1   
 24  23  24  1   
 25  23  25  1   
 26  23  26  1   
 27  25  34  1   
 28  26  27  1   
 29  26  28  1   
 30  26  30  1   
 31  28  29  1   
 32  30  31  1   
 33  30  32  1   
 34  30  34  1   
 35  32  33  1   
 36  34  35  1   
 37  34  51  1   
 38  37  38  2   
 39  37  43  1   
 40  38  39  1   
 41  38  40  1   
 42  40  41  2   
 43  41  42  1   
 44  41  51  1   
 45  42  43  1   
 46  42  47  2   
 47  43  44  2   
 48  44  45  1   
 49  44  46  1   
 50  47  48  1   
 51  48  49  1   
 52  48  50  1   
 53  48  51  1   
@<TRIPOS>SUBSTRUCTURE
  1 SAM  25 GROUP 4 A **** 0

# MOE 2022.02 (io_trps.svl 2020.11)
