# created with PyMOL 2.5.0
@<TRIPOS>MOLECULE
7O2A
27 29 1                 
SMALL
USER_CHARGES
@<TRIPOS>ATOM
1	   N	19.440	-14.676	23.006	N.3	1	SAM1002	0.000	
2	  CA	19.655	-14.629	21.558	C.3	1	SAM1002	0.000	
3	   C	20.649	-15.673	21.079	C.2	1	SAM1002	0.000	
4	   O	20.997	-16.558	21.869	O.co2	1	SAM1002	0.000	
5	  CB	20.044	-13.221	21.121	C.3	1	SAM1002	0.000	
6	  CG	18.825	-12.310	20.869	C.3	1	SAM1002	0.000	
7	  SD	17.779	-12.758	19.545	S.3	1	SAM1002	0.000	
8	  CE	17.597	-11.376	18.589	C.3	1	SAM1002	0.000	
9	 C5'	16.165	-12.976	20.157	C.3	1	SAM1002	0.000	
10	 C4'	15.886	-14.145	21.087	C.3	1	SAM1002	0.000	
11	 O4'	16.624	-14.004	22.303	O.3	1	SAM1002	0.000	
12	 C3'	14.434	-14.280	21.571	C.3	1	SAM1002	0.000	
13	 O3'	13.592	-14.833	20.537	O.3	1	SAM1002	0.000	
14	 C2'	14.567	-15.161	22.770	C.3	1	SAM1002	0.000	
15	 O2'	14.959	-16.494	22.436	O.3	1	SAM1002	0.000	
16	 C1'	15.798	-14.456	23.388	C.3	1	SAM1002	0.000	
17	 OXT	20.986	-15.610	19.887	O.co2	1	SAM1002	0.000	
18	  N1	14.252	-12.940	28.030	N.2	1	SAM1002	0.000	
19	  C2	14.347	-14.168	27.537	C.2	1	SAM1002	0.000	
20	  N3	14.747	-14.443	26.295	N.2	1	SAM1002	0.000	
21	  C4	15.078	-13.395	25.526	C.2	1	SAM1002	0.000	
22	  C5	15.045	-12.033	26.006	C.2	1	SAM1002	0.000	
23	  C6	14.592	-11.856	27.350	C.2	1	SAM1002	0.000	
24	  N6	14.493	-10.648	27.913	N.pl3	1	SAM1002	0.000	
25	  N7	15.376	-11.206	25.000	N.2	1	SAM1002	0.000	
26	  C8	15.684	-11.981	23.958	C.2	1	SAM1002	0.000	
27	  N9	15.463	-13.284	24.242	N.2	1	SAM1002	0.000	
@<TRIPOS>BOND
1 1 2 1
2 2 3 1
3 2 5 1
4 3 4 ar
5 3 17 ar
6 5 6 1
7 6 7 1
8 7 8 1
9 7 9 1
10 9 10 1
11 10 11 1
12 10 12 1
13 11 16 1
14 12 13 1
15 12 14 1
16 14 15 1
17 14 16 1
18 16 27 1
19 18 19 ar
20 18 23 ar
21 19 20 ar
22 20 21 ar
23 21 22 ar
24 21 27 ar
25 22 23 ar
26 22 25 ar
27 23 24 1
28 25 26 ar
29 26 27 ar
@<TRIPOS>SUBSTRUCTURE
1	SAM1002	1	GROUP	1 A	SAM
