@<TRIPOS>MOLECULE
7O2A.A
62 65 1 0 0 
SMALL
USER_CHARGES


@<TRIPOS>ATOM
  1 C1      16.8310    -8.1390    17.3970 C.3   1 UZT  -0.2000 
  2 H11     17.6644    -8.6397    16.9042 H     1 UZT   0.1000 
  3 H12     17.1968    -7.5981    18.2698 H     1 UZT   0.1000 
  4 C2      15.4240    -8.8060    17.4240 C.3   1 UZT  -0.2000 
  5 H21     14.7981    -8.7320    18.3133 H     1 UZT   0.1000 
  6 H22     15.2657    -9.7736    16.9478 H     1 UZT   0.1000 
  7 C3      15.7020    -7.5800    16.5840 C.3   1 UZT  -0.1950 
  8 H3      15.5469    -7.3499    15.5299 H     1 UZT   0.1000 
  9 C4      15.1450    -6.2250    17.1130 C.3   1 UZT  -0.0650 
 10 H41     15.7358    -5.4108    16.6933 H     1 UZT   0.0800 
 11 H42     15.2249    -6.2090    18.2000 H     1 UZT   0.0800 
 12 C5      13.6800    -6.0310    16.7190 C.3   1 UZT   0.1401 
 13 H51     13.0619    -6.5994    17.4140 H     1 UZT   0.0800 
 14 H52     13.5440    -6.4201    15.7100 H     1 UZT   0.0800 
 15 N6      13.2190    -4.6110    16.7380 N.am  1 UZT  -0.7301 
 16 H6      12.5852    -4.3034    17.4617 H     1 UZT   0.3700 
 17 C7      13.6310    -3.7440    15.8150 C.2   1 UZT   0.5438 
 18 O8      14.2870    -4.1040    14.8530 O.2   1 UZT  -0.5700 
 19 C9      13.2350    -2.3060    15.9530 C.ar  1 UZT   0.0862 
 20 C10     12.4230    -1.8500    16.9990 C.ar  1 UZT  -0.1500 
 21 H10     12.0553    -2.5309    17.7523 H     1 UZT   0.1500 
 22 C11     12.0970    -0.4740    17.0430 C.ar  1 UZT  -0.1500 
 23 H11     11.5194    -0.0917    17.8716 H     1 UZT   0.1500 
 24 C12     12.5270     0.4360    15.9900 C.ar  1 UZT   0.1170 
 25 C13     13.3500    -0.0450    15.0440 C.ar  1 UZT   0.1170 
 26 C14     13.6910    -1.3960    15.0030 C.ar  1 UZT  -0.1500 
 27 H14     14.3305    -1.7488    14.2074 H     1 UZT   0.1500 
 28 N15     13.7790     0.7660    14.0640 N.am  1 UZT  -0.5470 
 29 H15     13.7248     0.4424    13.1088 H     1 UZT   0.3700 
 30 C16     14.2810     1.9990    14.3040 C.2   1 UZT   0.5690 
 31 C17     14.5040     2.4970    15.7180 C.3   1 UZT  -0.0990 
 32 H171    15.0853     3.4184    15.6821 H     1 UZT   0.0800 
 33 H172    15.0552     1.7412    16.2776 H     1 UZT   0.0800 
 34 C18     13.1180     2.7850    16.4590 C.3   1 UZT   0.2201 
 35 H18     12.7011     3.7295    16.1093 H     1 UZT   0.0800 
 36 N19     12.1130     1.7150    16.1680 N.am  1 UZT  -0.4771 
 37 C20     13.3960     2.8170    17.8980 C.3   1 UZT  -0.2400 
 38 H201    13.8104     1.8582    18.2094 H     1 UZT   0.0800 
 39 H202    12.4711     3.0071    18.4426 H     1 UZT   0.0800 
 40 H203    14.1131     3.6095    18.1120 H     1 UZT   0.0800 
 41 C21     10.8210     1.9830    16.3270 C.2   1 UZT   0.6900 
 42 O22     10.4220     3.1020    16.7400 O.2   1 UZT  -0.5700 
 43 N23      9.8280     1.1710    15.9090 N.am  1 UZT  -0.6602 
 44 C24      9.9790    -0.1130    15.2770 C.3   1 UZT   0.1401 
 45 H241     9.4718    -0.9123    15.8173 H     1 UZT   0.0800 
 46 H242    11.0223    -0.3863    15.1191 H     1 UZT   0.0800 
 47 C25      9.2610     0.2750    13.9750 C.3   1 UZT  -0.1600 
 48 H251     9.3796    -0.5335    13.2536 H     1 UZT   0.0800 
 49 H252     9.7154     1.1837    13.5802 H     1 UZT   0.0800 
 50 C26      7.6850     0.5390    14.2070 C.3   1 UZT   0.4230 
 51 H26      7.3223    -0.4701    14.4025 H     1 UZT   0.0800 
 52 C27      7.3760     1.4990    15.3230 C.3   1 UZT  -0.1600 
 53 H271     6.4457     1.1998    15.8059 H     1 UZT   0.0800 
 54 H272     7.2657     2.5026    14.9123 H     1 UZT   0.0800 
 55 C28      8.4610     1.5000    16.3200 C.3   1 UZT   0.1401 
 56 H281     8.4931     2.5009    16.7504 H     1 UZT   0.0800 
 57 H282     8.1818     0.7818    17.0909 H     1 UZT   0.0800 
 58 N29      7.0330     1.2110    13.0490 N.4   1 UZT  -0.8530 
 59 H291     7.4215     2.1362    12.9342 H     1 UZT   0.4500 
 60 H292     6.0394     1.2814    13.2163 H     1 UZT   0.4500 
 61 H293     7.1958     0.6711    12.2111 H     1 UZT   0.4500 
 62 O30     14.6040     2.6700    13.3280 O.2   1 UZT  -0.5700 
@<TRIPOS>BOND
  1   1   2  1   
  2   1   3  1   
  3   1   4  1   
  4   1   7  1   
  5   4   5  1   
  6   4   6  1   
  7   4   7  1   
  8   7   8  1   
  9   7   9  1   
 10   9  10  1   
 11   9  11  1   
 12   9  12  1   
 13  12  13  1   
 14  12  14  1   
 15  12  15  1   
 16  15  16  1   
 17  15  17  am  
 18  17  18  2   
 19  17  19  1   
 20  19  20  ar  
 21  19  26  ar  
 22  20  21  1   
 23  20  22  ar  
 24  22  23  1   
 25  22  24  ar  
 26  24  25  ar  
 27  24  36  1   
 28  25  26  ar  
 29  25  28  1   
 30  26  27  1   
 31  28  29  1   
 32  28  30  am  
 33  30  31  1   
 34  30  62  2   
 35  31  32  1   
 36  31  33  1   
 37  31  34  1   
 38  34  35  1   
 39  34  36  1   
 40  34  37  1   
 41  36  41  am  
 42  37  38  1   
 43  37  39  1   
 44  37  40  1   
 45  41  42  2   
 46  41  43  am  
 47  43  44  1   
 48  43  55  1   
 49  44  45  1   
 50  44  46  1   
 51  44  47  1   
 52  47  48  1   
 53  47  49  1   
 54  47  50  1   
 55  50  51  1   
 56  50  52  1   
 57  50  58  1   
 58  52  53  1   
 59  52  54  1   
 60  52  55  1   
 61  55  56  1   
 62  55  57  1   
 63  58  59  1   
 64  58  60  1   
 65  58  61  1   
@<TRIPOS>SUBSTRUCTURE
  1 UZT  22 GROUP 4 A **** 0

# MOE 2022.02 (io_trps.svl 2020.11)
