# created with PyMOL 2.5.0
@<TRIPOS>MOLECULE
7O2A
30 33 1                 
SMALL
USER_CHARGES
@<TRIPOS>ATOM
1	  C1	16.831	-8.139	17.397	C.3	1	UZT1001	0.000	
2	  C2	15.424	-8.806	17.424	C.3	1	UZT1001	0.000	
3	  C3	15.702	-7.580	16.584	C.3	1	UZT1001	0.000	
4	  C4	15.145	-6.225	17.113	C.3	1	UZT1001	0.000	
5	  C5	13.680	-6.031	16.719	C.3	1	UZT1001	0.000	
6	  N6	13.219	-4.611	16.738	N.pl3	1	UZT1001	0.000	
7	  C7	13.631	-3.744	15.815	C.2	1	UZT1001	0.000	
8	  O8	14.287	-4.104	14.853	O.2	1	UZT1001	0.000	
9	  C9	13.235	-2.306	15.953	C.2	1	UZT1001	0.000	
10	 C10	12.423	-1.850	16.999	C.2	1	UZT1001	0.000	
11	 C11	12.097	-0.474	17.043	C.2	1	UZT1001	0.000	
12	 C12	12.527	0.436	15.990	C.2	1	UZT1001	0.000	
13	 C13	13.350	-0.045	15.044	C.2	1	UZT1001	0.000	
14	 C14	13.691	-1.396	15.003	C.2	1	UZT1001	0.000	
15	 N15	13.779	0.766	14.064	N.pl3	1	UZT1001	0.000	
16	 C16	14.281	1.999	14.304	C.2	1	UZT1001	0.000	
17	 C17	14.504	2.497	15.718	C.3	1	UZT1001	0.000	
18	 C18	13.118	2.785	16.459	C.3	1	UZT1001	0.000	
19	 N19	12.113	1.715	16.168	N.pl3	1	UZT1001	0.000	
20	 C20	13.396	2.817	17.898	C.3	1	UZT1001	0.000	
21	 C21	10.821	1.983	16.327	C.2	1	UZT1001	0.000	
22	 O22	10.422	3.102	16.740	O.2	1	UZT1001	0.000	
23	 N23	9.828	1.171	15.909	N.pl3	1	UZT1001	0.000	
24	 C24	9.979	-0.113	15.277	C.3	1	UZT1001	0.000	
25	 C25	9.261	0.275	13.975	C.3	1	UZT1001	0.000	
26	 C26	7.685	0.539	14.207	C.3	1	UZT1001	0.000	
27	 C27	7.376	1.499	15.323	C.3	1	UZT1001	0.000	
28	 C28	8.461	1.500	16.320	C.3	1	UZT1001	0.000	
29	 N29	7.033	1.211	13.049	N.3	1	UZT1001	0.000	
30	 O30	14.604	2.670	13.328	O.2	1	UZT1001	0.000	
@<TRIPOS>BOND
1 1 2 1
2 1 3 1
3 2 3 1
4 3 4 1
5 4 5 1
6 5 6 1
7 6 7 1
8 7 8 2
9 7 9 1
10 9 10 ar
11 9 14 ar
12 10 11 ar
13 11 12 ar
14 12 13 ar
15 12 19 1
16 13 14 ar
17 13 15 1
18 15 16 1
19 16 17 1
20 16 30 2
21 17 18 1
22 18 19 1
23 18 20 1
24 19 21 1
25 21 22 2
26 21 23 1
27 23 24 1
28 23 28 1
29 24 25 1
30 25 26 1
31 26 27 1
32 26 29 1
33 27 28 1
@<TRIPOS>SUBSTRUCTURE
1	UZT1001	1	GROUP	1 A	UZT
