@<TRIPOS>MOLECULE
6J1O.B
36 38 1 0 0 
SMALL
USER_CHARGES


@<TRIPOS>ATOM
  1 C5'     47.8470   -19.3470   -29.6660 C.3   1 MTA   0.0700 
  2 H5'1    47.0535   -19.3181   -30.4127 H     1 MTA   0.0800 
  3 H5'2    48.5981   -18.5940   -29.9047 H     1 MTA   0.0800 
  4 S5'     48.5910   -20.9460   -29.6490 S.3   1 MTA  -0.4600 
  5 C4'     47.2640   -19.0730   -28.2840 C.3   1 MTA   0.2000 
  6 H4'     46.6600   -19.9567   -28.0784 H     1 MTA   0.0800 
  7 O4'     48.2870   -18.8830   -27.3060 O.3   1 MTA  -0.5600 
  8 C3'     46.3960   -17.8220   -28.2210 C.3   1 MTA   0.2000 
  9 H3'     46.5526   -17.1575   -29.0707 H     1 MTA   0.0800 
 10 O3'     45.0240   -18.2190   -28.2020 O.3   1 MTA  -0.6800 
 11 H3'     44.4929   -17.4239   -28.1163 H     1 MTA   0.4000 
 12 C2'     46.7560   -17.1450   -26.9100 C.3   1 MTA   0.2000 
 13 H2'     47.2122   -16.1638   -27.0413 H     1 MTA   0.0800 
 14 O2'     45.5840   -16.9740   -26.1190 O.3   1 MTA  -0.6800 
 15 H2'     45.1828   -17.8385   -26.0038 H     1 MTA   0.4000 
 16 C1'     47.6600   -18.1600   -26.2420 C.3   1 MTA   0.5691 
 17 H1'     47.0534   -18.8132   -25.6147 H     1 MTA   0.0800 
 18 N1      52.6300   -17.9940   -24.4670 N.2   1 MTA  -0.6610 
 19 C2      52.1270   -18.5780   -25.5700 C.2   1 MTA   0.6010 
 20 H2      52.8048   -19.1106   -26.2206 H     1 MTA   0.0600 
 21 N3      50.8240   -18.5340   -25.9060 N.2   1 MTA  -0.6610 
 22 C4      49.9190   -17.8830   -25.1330 C.2   1 MTA   0.5000 
 23 C5      50.3960   -17.2210   -23.9100 C.2   1 MTA   0.4500 
 24 C6      51.8440   -17.3120   -23.6050 C.2   1 MTA   0.6110 
 25 N6      52.3630   -16.7290   -22.4970 N.2   1 MTA  -0.2000 
 26 H62     53.3519   -16.8010   -22.3046 H     1 MTA   0.4000 
 27 H61     51.7609   -16.2226   -21.8637 H     1 MTA   0.4000 
 28 N7      49.3170   -16.6600   -23.3320 N.2   1 MTA  -0.6960 
 29 C8      48.2420   -16.9330   -24.1160 C.3   1 MTA   0.4551 
 30 H81     47.7923   -15.9951   -24.4419 H     1 MTA   0.0800 
 31 H82     47.5151   -17.5025   -23.5369 H     1 MTA   0.0800 
 32 N9      48.5990   -17.6500   -25.2010 N.pl3 1 MTA  -0.7882 
 33 CS      47.9590   -21.6120   -31.1540 C.3   1 MTA  -0.0100 
 34 HS1     48.3383   -22.6247   -31.2907 H     1 MTA   0.0800 
 35 HS2     48.2779   -20.9887   -31.9894 H     1 MTA   0.0800 
 36 HS3     46.8700   -21.6344   -31.1124 H     1 MTA   0.0800 
@<TRIPOS>BOND
  1   1   2  1   
  2   1   3  1   
  3   1   4  1   
  4   1   5  1   
  5   4  33  1   
  6   5   6  1   
  7   5   7  1   
  8   5   8  1   
  9   7  16  1   
 10   8   9  1   
 11   8  10  1   
 12   8  12  1   
 13  10  11  1   
 14  12  13  1   
 15  12  14  1   
 16  12  16  1   
 17  14  15  1   
 18  16  17  1   
 19  16  32  1   
 20  18  19  2   
 21  18  24  1   
 22  19  20  1   
 23  19  21  1   
 24  21  22  2   
 25  22  23  1   
 26  22  32  1   
 27  23  24  1   
 28  23  28  2   
 29  24  25  2   
 30  25  26  1   
 31  25  27  1   
 32  28  29  1   
 33  29  30  1   
 34  29  31  1   
 35  29  32  1   
 36  33  34  1   
 37  33  35  1   
 38  33  36  1   
@<TRIPOS>SUBSTRUCTURE
  1 MTA  16 GROUP 4 B **** 0

# MOE 2022.02 (io_trps.svl 2020.11)
