@<TRIPOS>MOLECULE
6J1O.A
36 38 1 0 0 
SMALL
USER_CHARGES


@<TRIPOS>ATOM
  1 C5'     22.2740   -29.4160   -17.8750 C.3   1 MTA   0.0700 
  2 H5'1    21.6775   -30.0828   -18.4977 H     1 MTA   0.0800 
  3 H5'2    22.1749   -29.7094   -16.8299 H     1 MTA   0.0800 
  4 S5'     21.6970   -27.7630   -18.0730 S.3   1 MTA  -0.4600 
  5 C4'     23.7400   -29.5150   -18.2900 C.3   1 MTA   0.2000 
  6 H4'     23.9558   -28.6193   -18.8725 H     1 MTA   0.0800 
  7 O4'     24.6030   -29.6020   -17.1560 O.3   1 MTA  -0.5600 
  8 C3'     23.9740   -30.7810   -19.0820 C.3   1 MTA   0.2000 
  9 H3'     23.0653   -31.1987   -19.5155 H     1 MTA   0.0800 
 10 O3'     24.8910   -30.4610   -20.1300 O.3   1 MTA  -0.6800 
 11 H3'     25.0863   -31.2733   -20.6029 H     1 MTA   0.4000 
 12 C2'     24.6030   -31.7620   -18.1120 C.3   1 MTA   0.2000 
 13 H2'     23.8961   -32.5063   -17.7454 H     1 MTA   0.0800 
 14 O2'     25.6660   -32.4490   -18.7760 O.3   1 MTA  -0.6800 
 15 H2'     26.2840   -31.7876   -19.0958 H     1 MTA   0.4000 
 16 C1'     25.1490   -30.9140   -16.9780 C.3   1 MTA   0.5691 
 17 H1'     26.2321   -31.0298   -17.0184 H     1 MTA   0.0800 
 18 N1      26.1580   -32.7970   -12.1150 N.2   1 MTA  -0.6610 
 19 C2      26.9860   -32.6690   -13.1670 C.2   1 MTA   0.6010 
 20 H2      28.0156   -32.9709   -13.0438 H     1 MTA   0.0600 
 21 N3      26.6060   -32.1870   -14.3630 N.2   1 MTA  -0.6610 
 22 C4      25.3370   -31.7780   -14.5890 C.2   1 MTA   0.5000 
 23 C5      24.3760   -31.8880   -13.4790 C.2   1 MTA   0.4500 
 24 C6      24.8600   -32.4350   -12.1940 C.2   1 MTA   0.6110 
 25 N6      24.0220   -32.5630   -11.1370 N.2   1 MTA  -0.2000 
 26 H62     24.3641   -32.9381   -10.2639 H     1 MTA   0.4000 
 27 H61     23.0553   -32.2833   -11.2222 H     1 MTA   0.4000 
 28 N7      23.2000   -31.4330   -13.9340 N.2   1 MTA  -0.6960 
 29 C8      23.3890   -31.0590   -15.2200 C.3   1 MTA   0.4551 
 30 H81     23.1643   -29.9966   -15.3146 H     1 MTA   0.0800 
 31 H82     22.7138   -31.6312   -15.8562 H     1 MTA   0.0800 
 32 N9      24.6560   -31.2740   -15.6250 N.pl3 1 MTA  -0.7882 
 33 CS      21.6460   -27.6790   -19.8310 C.3   1 MTA  -0.0100 
 34 HS1     21.2992   -26.6922   -20.1377 H     1 MTA   0.0800 
 35 HS2     20.9630   -28.4386   -20.2114 H     1 MTA   0.0800 
 36 HS3     22.6442   -27.8542   -20.2322 H     1 MTA   0.0800 
@<TRIPOS>BOND
  1   1   2  1   
  2   1   3  1   
  3   1   4  1   
  4   1   5  1   
  5   4  33  1   
  6   5   6  1   
  7   5   7  1   
  8   5   8  1   
  9   7  16  1   
 10   8   9  1   
 11   8  10  1   
 12   8  12  1   
 13  10  11  1   
 14  12  13  1   
 15  12  14  1   
 16  12  16  1   
 17  14  15  1   
 18  16  17  1   
 19  16  32  1   
 20  18  19  2   
 21  18  24  1   
 22  19  20  1   
 23  19  21  1   
 24  21  22  2   
 25  22  23  1   
 26  22  32  1   
 27  23  24  1   
 28  23  28  2   
 29  24  25  2   
 30  25  26  1   
 31  25  27  1   
 32  28  29  1   
 33  29  30  1   
 34  29  31  1   
 35  29  32  1   
 36  33  34  1   
 37  33  35  1   
 38  33  36  1   
@<TRIPOS>SUBSTRUCTURE
  1 MTA  32 GROUP 4 A **** 0

# MOE 2022.02 (io_trps.svl 2020.11)
