# created with PyMOL 2.5.0
@<TRIPOS>MOLECULE
6J1O
20 22 1                 
SMALL
USER_CHARGES
@<TRIPOS>ATOM
1	 C5'	47.847	-19.347	-29.666	C.3	1	MTA402	0.000	
2	 S5'	48.591	-20.946	-29.649	S.3	1	MTA402	0.000	
3	 C4'	47.264	-19.073	-28.284	C.3	1	MTA402	0.000	
4	 O4'	48.287	-18.883	-27.306	O.3	1	MTA402	0.000	
5	 C3'	46.396	-17.822	-28.221	C.3	1	MTA402	0.000	
6	 O3'	45.024	-18.219	-28.202	O.3	1	MTA402	0.000	
7	 C2'	46.756	-17.145	-26.910	C.3	1	MTA402	0.000	
8	 O2'	45.584	-16.974	-26.119	O.3	1	MTA402	0.000	
9	 C1'	47.660	-18.160	-26.242	C.3	1	MTA402	0.000	
10	  N1	52.630	-17.994	-24.467	N.2	1	MTA402	0.000	
11	  C2	52.127	-18.578	-25.570	C.2	1	MTA402	0.000	
12	  N3	50.824	-18.534	-25.906	N.2	1	MTA402	0.000	
13	  C4	49.919	-17.883	-25.133	C.2	1	MTA402	0.000	
14	  C5	50.396	-17.221	-23.910	C.2	1	MTA402	0.000	
15	  C6	51.844	-17.312	-23.605	C.2	1	MTA402	0.000	
16	  N6	52.363	-16.729	-22.497	N.pl3	1	MTA402	0.000	
17	  N7	49.317	-16.660	-23.332	N.2	1	MTA402	0.000	
18	  C8	48.242	-16.933	-24.116	C.2	1	MTA402	0.000	
19	  N9	48.599	-17.650	-25.201	N.2	1	MTA402	0.000	
20	  CS	47.959	-21.612	-31.154	C.3	1	MTA402	0.000	
@<TRIPOS>BOND
1 1 2 1
2 1 3 1
3 2 20 1
4 3 4 1
5 3 5 1
6 4 9 1
7 5 6 1
8 5 7 1
9 7 8 1
10 7 9 1
11 9 19 1
12 10 11 ar
13 10 15 ar
14 11 12 ar
15 12 13 ar
16 13 14 ar
17 13 19 ar
18 14 15 ar
19 14 17 ar
20 15 16 1
21 17 18 ar
22 18 19 ar
@<TRIPOS>SUBSTRUCTURE
1	MTA402	1	GROUP	1 B	MTA
