# created with PyMOL 2.5.0
@<TRIPOS>MOLECULE
6J1O
20 22 1                 
SMALL
USER_CHARGES
@<TRIPOS>ATOM
1	 C5'	22.274	-29.416	-17.875	C.3	1	MTA402	0.000	
2	 S5'	21.697	-27.763	-18.073	S.3	1	MTA402	0.000	
3	 C4'	23.740	-29.515	-18.290	C.3	1	MTA402	0.000	
4	 O4'	24.603	-29.602	-17.156	O.3	1	MTA402	0.000	
5	 C3'	23.974	-30.781	-19.082	C.3	1	MTA402	0.000	
6	 O3'	24.891	-30.461	-20.130	O.3	1	MTA402	0.000	
7	 C2'	24.603	-31.762	-18.112	C.3	1	MTA402	0.000	
8	 O2'	25.666	-32.449	-18.776	O.3	1	MTA402	0.000	
9	 C1'	25.149	-30.914	-16.978	C.3	1	MTA402	0.000	
10	  N1	26.158	-32.797	-12.115	N.2	1	MTA402	0.000	
11	  C2	26.986	-32.669	-13.167	C.2	1	MTA402	0.000	
12	  N3	26.606	-32.187	-14.363	N.2	1	MTA402	0.000	
13	  C4	25.337	-31.778	-14.589	C.2	1	MTA402	0.000	
14	  C5	24.376	-31.888	-13.479	C.2	1	MTA402	0.000	
15	  C6	24.860	-32.435	-12.194	C.2	1	MTA402	0.000	
16	  N6	24.022	-32.563	-11.137	N.pl3	1	MTA402	0.000	
17	  N7	23.200	-31.433	-13.934	N.2	1	MTA402	0.000	
18	  C8	23.389	-31.059	-15.220	C.2	1	MTA402	0.000	
19	  N9	24.656	-31.274	-15.625	N.2	1	MTA402	0.000	
20	  CS	21.646	-27.679	-19.831	C.3	1	MTA402	0.000	
@<TRIPOS>BOND
1 1 2 1
2 1 3 1
3 2 20 1
4 3 4 1
5 3 5 1
6 4 9 1
7 5 6 1
8 5 7 1
9 7 8 1
10 7 9 1
11 9 19 1
12 10 11 ar
13 10 15 ar
14 11 12 ar
15 12 13 ar
16 13 14 ar
17 13 19 ar
18 14 15 ar
19 14 17 ar
20 15 16 1
21 17 18 ar
22 18 19 ar
@<TRIPOS>SUBSTRUCTURE
1	MTA402	1	GROUP	1 A	MTA
