# created with PyMOL 2.4.0
@<TRIPOS>MOLECULE
temp
50 52 1                 
SMALL
USER_CHARGES
@<TRIPOS>ATOM
1	   N	58.557	-14.592	-33.973	N.4	1	SAM1	0.000	
2	  CA	58.228	-15.928	-33.505	C.3	1	SAM1	0.000	
3	   C	57.463	-16.699	-34.578	C.2	1	SAM1	0.000	
4	   O	56.638	-16.136	-35.299	O.co2	1	SAM1	0.000	
5	  CB	57.413	-15.838	-32.217	C.3	1	SAM1	0.000	
6	  CG	57.594	-17.046	-31.318	C.3	1	SAM1	0.000	
7	  SD	56.786	-16.865	-29.711	S.3	1	SAM1	0.000	
8	  CE	55.226	-16.013	-30.061	C.3	1	SAM1	0.000	
9	 C5'	57.733	-15.603	-28.830	C.3	1	SAM1	0.000	
10	 C4'	59.238	-15.803	-28.968	C.3	1	SAM1	0.000	
11	 O4'	59.869	-14.795	-28.204	O.3	1	SAM1	0.000	
12	 C3'	59.704	-17.136	-28.398	C.3	1	SAM1	0.000	
13	 O3'	60.602	-17.745	-29.300	O.3	1	SAM1	0.000	
14	 C2'	60.432	-16.785	-27.121	C.3	1	SAM1	0.000	
15	 O2'	61.527	-17.635	-26.880	O.3	1	SAM1	0.000	
16	 C1'	60.906	-15.385	-27.436	C.3	1	SAM1	0.000	
17	 OXT	57.644	-17.904	-34.745	O.co2	1	SAM1	0.000	
18	  N1	64.172	-11.934	-25.492	N.2	1	SAM1	0.000	
19	  C2	64.225	-12.579	-26.707	C.2	1	SAM1	0.000	
20	  N3	63.246	-13.491	-27.046	N.2	1	SAM1	0.000	
21	  C4	62.250	-13.732	-26.164	C.2	1	SAM1	0.000	
22	  C5	62.177	-13.102	-24.934	C.2	1	SAM1	0.000	
23	  C6	63.165	-12.187	-24.590	C.2	1	SAM1	0.000	
24	  N6	63.128	-11.555	-23.424	N.pl3	1	SAM1	0.000	
25	  N7	61.070	-13.552	-24.290	N.2	1	SAM1	0.000	
26	  C8	60.447	-14.447	-25.095	C.2	1	SAM1	0.000	
27	  N9	61.171	-14.566	-26.250	N.2	1	SAM1	0.000	
28	  HA	59.152	-16.469	-33.298	 H	1	SAM1	0.000	
29	 HB1	56.358	-15.754	-32.478	 H	1	SAM1	0.000	
30	 HB2	57.724	-14.948	-31.670	 H	1	SAM1	0.000	
31	 HG1	58.661	-17.199	-31.154	 H	1	SAM1	0.000	
32	 HG2	57.175	-17.918	-31.820	 H	1	SAM1	0.000	
33	 HE1	54.558	-16.685	-30.600	 H	1	SAM1	0.000	
34	 HE2	55.423	-15.130	-30.670	 H	1	SAM1	0.000	
35	 HE3	54.759	-15.711	-29.124	 H	1	SAM1	0.000	
36	  H1	57.706	-14.084	-34.167	 H	1	SAM1	0.000	
37	  H2	59.110	-14.657	-34.816	 H	1	SAM1	0.000	
38	  H2	65.032	-12.372	-27.394	 H	1	SAM1	0.000	
39	  H3	59.084	-14.106	-33.261	 H	1	SAM1	0.000	
40	  H8	59.534	-14.976	-24.864	 H	1	SAM1	0.000	
41	 H1'	61.859	-15.438	-27.962	 H	1	SAM1	0.000	
42	 H2'	59.814	-16.876	-26.228	 H	1	SAM1	0.000	
43	 H2'	62.105	-17.588	-27.645	 H	1	SAM1	0.000	
44	 H3'	58.877	-17.825	-28.226	 H	1	SAM1	0.000	
45	 H3'	60.910	-18.560	-28.897	 H	1	SAM1	0.000	
46	 H4'	59.486	-15.770	-30.029	 H	1	SAM1	0.000	
47	 H61	62.376	-11.737	-22.775	 H	1	SAM1	0.000	
48	 H62	63.852	-10.892	-23.186	 H	1	SAM1	0.000	
49	H5'1	57.470	-15.643	-27.773	 H	1	SAM1	0.000	
50	H5'2	57.472	-14.625	-29.233	 H	1	SAM1	0.000	
@<TRIPOS>BOND
1 1 2 1
2 1 36 1
3 1 37 1
4 1 39 1
5 2 3 1
6 2 5 1
7 2 28 1
8 3 4 ar
9 3 17 ar
10 5 6 1
11 5 29 1
12 5 30 1
13 6 7 1
14 6 31 1
15 6 32 1
16 7 8 1
17 7 9 1
18 8 33 1
19 8 34 1
20 8 35 1
21 9 10 1
22 9 49 1
23 9 50 1
24 10 11 1
25 10 12 1
26 10 46 1
27 11 16 1
28 12 13 1
29 12 14 1
30 12 44 1
31 13 45 1
32 14 15 1
33 14 16 1
34 14 42 1
35 15 43 1
36 16 27 1
37 16 41 1
38 18 19 ar
39 18 23 ar
40 19 20 ar
41 19 38 1
42 20 21 ar
43 21 22 ar
44 21 27 ar
45 22 23 ar
46 22 25 ar
47 23 24 1
48 24 47 1
49 24 48 1
50 25 26 ar
51 26 27 ar
52 26 40 1
@<TRIPOS>SUBSTRUCTURE
1	SAM1	1	GROUP	1 B	SAM
