@<TRIPOS>MOLECULE
6J1O.B
51 53 1 0 0 
SMALL
USER_CHARGES


@<TRIPOS>ATOM
  1 N       58.5570   -14.5920   -33.9730 N.4   1 SAM  -0.8530 
  2 H1      57.7058   -14.0842   -34.1672 H     1 SAM   0.4500 
  3 H2      59.1099   -14.6571   -34.8157 H     1 SAM   0.4500 
  4 H3      59.0839   -14.1062   -33.2613 H     1 SAM   0.4500 
  5 CA      58.2280   -15.9280   -33.5050 C.3   1 SAM   0.3170 
  6 HA      59.1516   -16.4686   -33.2979 H     1 SAM   0.0800 
  7 C       57.4630   -16.6990   -34.5780 C.2   1 SAM   0.9060 
  8 O       56.6380   -16.1360   -35.2990 O.co2 1 SAM  -0.9000 
  9 CB      57.4130   -15.8380   -32.2170 C.3   1 SAM  -0.1600 
 10 HB1     56.3581   -15.7538   -32.4782 H     1 SAM   0.0800 
 11 HB2     57.7240   -14.9479   -31.6702 H     1 SAM   0.0800 
 12 CG      57.5940   -17.0460   -31.3180 C.3   1 SAM  -0.1525 
 13 HG1     58.6607   -17.1992   -31.1542 H     1 SAM   0.0800 
 14 HG2     57.1747   -17.9177   -31.8204 H     1 SAM   0.0800 
 15 SD      56.7860   -16.8650   -29.7110 S.3   1 SAM   0.9775 
 16 CE      55.2260   -16.0130   -30.0610 C.3   1 SAM  -0.2325 
 17 HE1     54.5582   -16.6848   -30.6003 H     1 SAM   0.0800 
 18 HE2     55.4226   -15.1304   -30.6696 H     1 SAM   0.0800 
 19 HE3     54.7586   -15.7112   -29.1237 H     1 SAM   0.0800 
 20 C5'     57.7330   -15.6030   -28.8300 C.3   1 SAM  -0.1525 
 21 H5'1    57.4702   -15.6427   -27.7729 H     1 SAM   0.0800 
 22 H5'2    57.4716   -14.6245   -29.2329 H     1 SAM   0.0800 
 23 C4'     59.2380   -15.8030   -28.9680 C.3   1 SAM   0.2000 
 24 H4'     59.4858   -15.7703   -30.0290 H     1 SAM   0.0800 
 25 O4'     59.8690   -14.7950   -28.2040 O.3   1 SAM  -0.5600 
 26 C3'     59.7040   -17.1360   -28.3980 C.3   1 SAM   0.2000 
 27 H3'     58.8767   -17.8246   -28.2263 H     1 SAM   0.0800 
 28 O3'     60.6020   -17.7450   -29.3000 O.3   1 SAM  -0.6800 
 29 H3'     60.9101   -18.5600   -28.8970 H     1 SAM   0.4000 
 30 C2'     60.4320   -16.7850   -27.1210 C.3   1 SAM   0.2000 
 31 H2'     59.8141   -16.8761   -26.2277 H     1 SAM   0.0800 
 32 O2'     61.5270   -17.6350   -26.8800 O.3   1 SAM  -0.6800 
 33 H2'     62.1046   -17.5884   -27.6454 H     1 SAM   0.4000 
 34 C1'     60.9060   -15.3850   -27.4360 C.3   1 SAM   0.5691 
 35 H1'     61.8592   -15.4383   -27.9619 H     1 SAM   0.0800 
 36 OXT     57.6440   -17.9040   -34.7450 O.co2 1 SAM  -0.9000 
 37 N1      64.1720   -11.9340   -25.4920 N.2   1 SAM  -0.6610 
 38 C2      64.2250   -12.5790   -26.7070 C.2   1 SAM   0.6010 
 39 H2      65.0318   -12.3716   -27.3943 H     1 SAM   0.0600 
 40 N3      63.2460   -13.4910   -27.0460 N.2   1 SAM  -0.6610 
 41 C4      62.2500   -13.7320   -26.1640 C.2   1 SAM   0.5000 
 42 C5      62.1770   -13.1020   -24.9340 C.2   1 SAM   0.4500 
 43 C6      63.1650   -12.1870   -24.5900 C.2   1 SAM   0.6110 
 44 N6      63.1280   -11.5550   -23.4240 N.2   1 SAM  -0.2000 
 45 H62     63.8519   -10.8923   -23.1856 H     1 SAM   0.4000 
 46 H61     62.3759   -11.7366   -22.7748 H     1 SAM   0.4000 
 47 N7      61.0700   -13.5520   -24.2900 N.2   1 SAM  -0.6960 
 48 C8      60.4470   -14.4470   -25.0950 C.3   1 SAM   0.4551 
 49 H81     59.4409   -14.0968   -25.3256 H     1 SAM   0.0800 
 50 H82     60.3895   -15.4140   -24.5953 H     1 SAM   0.0800 
 51 N9      61.1710   -14.5660   -26.2500 N.pl3 1 SAM  -0.7882 
@<TRIPOS>BOND
  1   1   2  1   
  2   1   3  1   
  3   1   4  1   
  4   1   5  1   
  5   5   6  1   
  6   5   7  1   
  7   5   9  1   
  8   7   8  ar  
  9   7  36  ar  
 10   9  10  1   
 11   9  11  1   
 12   9  12  1   
 13  12  13  1   
 14  12  14  1   
 15  12  15  1   
 16  15  16  1   
 17  15  20  1   
 18  16  17  1   
 19  16  18  1   
 20  16  19  1   
 21  20  21  1   
 22  20  22  1   
 23  20  23  1   
 24  23  24  1   
 25  23  25  1   
 26  23  26  1   
 27  25  34  1   
 28  26  27  1   
 29  26  28  1   
 30  26  30  1   
 31  28  29  1   
 32  30  31  1   
 33  30  32  1   
 34  30  34  1   
 35  32  33  1   
 36  34  35  1   
 37  34  51  1   
 38  37  38  2   
 39  37  43  1   
 40  38  39  1   
 41  38  40  1   
 42  40  41  2   
 43  41  42  1   
 44  41  51  1   
 45  42  43  1   
 46  42  47  2   
 47  43  44  2   
 48  44  45  1   
 49  44  46  1   
 50  47  48  1   
 51  48  49  1   
 52  48  50  1   
 53  48  51  1   
@<TRIPOS>SUBSTRUCTURE
  1 SAM  25 GROUP 4 B **** 0

# MOE 2022.02 (io_trps.svl 2020.11)
