# created with PyMOL 2.5.0
@<TRIPOS>MOLECULE
6J1O
27 29 1                 
SMALL
USER_CHARGES
@<TRIPOS>ATOM
1	   N	58.557	-14.592	-33.973	N.3	1	SAM401	0.000	
2	  CA	58.228	-15.928	-33.505	C.3	1	SAM401	0.000	
3	   C	57.463	-16.699	-34.578	C.2	1	SAM401	0.000	
4	   O	56.638	-16.136	-35.299	O.co2	1	SAM401	0.000	
5	  CB	57.413	-15.838	-32.217	C.3	1	SAM401	0.000	
6	  CG	57.594	-17.046	-31.318	C.3	1	SAM401	0.000	
7	  SD	56.786	-16.865	-29.711	S.3	1	SAM401	0.000	
8	  CE	55.226	-16.013	-30.061	C.3	1	SAM401	0.000	
9	 C5'	57.733	-15.603	-28.830	C.3	1	SAM401	0.000	
10	 C4'	59.238	-15.803	-28.968	C.3	1	SAM401	0.000	
11	 O4'	59.869	-14.795	-28.204	O.3	1	SAM401	0.000	
12	 C3'	59.704	-17.136	-28.398	C.3	1	SAM401	0.000	
13	 O3'	60.602	-17.745	-29.300	O.3	1	SAM401	0.000	
14	 C2'	60.432	-16.785	-27.121	C.3	1	SAM401	0.000	
15	 O2'	61.527	-17.635	-26.880	O.3	1	SAM401	0.000	
16	 C1'	60.906	-15.385	-27.436	C.3	1	SAM401	0.000	
17	 OXT	57.644	-17.904	-34.745	O.co2	1	SAM401	0.000	
18	  N1	64.172	-11.934	-25.492	N.2	1	SAM401	0.000	
19	  C2	64.225	-12.579	-26.707	C.2	1	SAM401	0.000	
20	  N3	63.246	-13.491	-27.046	N.2	1	SAM401	0.000	
21	  C4	62.250	-13.732	-26.164	C.2	1	SAM401	0.000	
22	  C5	62.177	-13.102	-24.934	C.2	1	SAM401	0.000	
23	  C6	63.165	-12.187	-24.590	C.2	1	SAM401	0.000	
24	  N6	63.128	-11.555	-23.424	N.pl3	1	SAM401	0.000	
25	  N7	61.070	-13.552	-24.290	N.2	1	SAM401	0.000	
26	  C8	60.447	-14.447	-25.095	C.2	1	SAM401	0.000	
27	  N9	61.171	-14.566	-26.250	N.2	1	SAM401	0.000	
@<TRIPOS>BOND
1 1 2 1
2 2 3 1
3 2 5 1
4 3 4 ar
5 3 17 ar
6 5 6 1
7 6 7 1
8 7 8 1
9 7 9 1
10 9 10 1
11 10 11 1
12 10 12 1
13 11 16 1
14 12 13 1
15 12 14 1
16 14 15 1
17 14 16 1
18 16 27 1
19 18 19 ar
20 18 23 ar
21 19 20 ar
22 20 21 ar
23 21 22 ar
24 21 27 ar
25 22 23 ar
26 22 25 ar
27 23 24 1
28 25 26 ar
29 26 27 ar
@<TRIPOS>SUBSTRUCTURE
1	SAM401	1	GROUP	1 B	SAM
