# created with PyMOL 2.4.0
@<TRIPOS>MOLECULE
temp
50 52 1                 
SMALL
USER_CHARGES
@<TRIPOS>ATOM
1	   N	11.960	-34.760	-13.035	N.4	1	SAM1	0.000	
2	  CA	12.474	-33.401	-13.137	C.3	1	SAM1	0.000	
3	   C	12.060	-32.766	-14.463	C.2	1	SAM1	0.000	
4	   O	11.425	-31.711	-14.497	O.co2	1	SAM1	0.000	
5	  CB	13.998	-33.413	-12.991	C.3	1	SAM1	0.000	
6	  CG	14.486	-32.375	-11.996	C.3	1	SAM1	0.000	
7	  SD	16.222	-32.567	-11.525	S.3	1	SAM1	0.000	
8	  CE	17.005	-33.366	-12.950	C.3	1	SAM1	0.000	
9	 C5'	16.209	-33.907	-10.309	C.3	1	SAM1	0.000	
10	 C4'	15.149	-33.753	-9.224	C.3	1	SAM1	0.000	
11	 O4'	15.328	-34.811	-8.300	O.3	1	SAM1	0.000	
12	 C3'	15.271	-32.453	-8.433	C.3	1	SAM1	0.000	
13	 O3'	14.012	-31.800	-8.387	O.3	1	SAM1	0.000	
14	 C2'	15.715	-32.903	-7.050	C.3	1	SAM1	0.000	
15	 O2'	15.254	-32.123	-5.970	O.3	1	SAM1	0.000	
16	 C1'	15.143	-34.299	-6.999	C.3	1	SAM1	0.000	
17	 OXT	12.329	-33.300	-15.538	O.co2	1	SAM1	0.000	
18	  N1	14.333	-37.897	-3.398	N.2	1	SAM1	0.000	
19	  C2	13.410	-37.231	-4.170	C.2	1	SAM1	0.000	
20	  N3	13.816	-36.284	-5.079	N.2	1	SAM1	0.000	
21	  C4	15.148	-36.028	-5.214	C.2	1	SAM1	0.000	
22	  C5	16.100	-36.680	-4.456	C.2	1	SAM1	0.000	
23	  C6	15.681	-37.628	-3.534	C.2	1	SAM1	0.000	
24	  N6	16.562	-38.285	-2.788	N.pl3	1	SAM1	0.000	
25	  N7	17.330	-36.209	-4.813	N.2	1	SAM1	0.000	
26	  C8	17.157	-35.282	-5.782	C.2	1	SAM1	0.000	
27	  N9	15.811	-35.166	-6.030	N.2	1	SAM1	0.000	
28	  HA	12.049	-32.800	-12.333	 H	1	SAM1	0.000	
29	 HB1	14.446	-33.206	-13.963	 H	1	SAM1	0.000	
30	 HB2	14.310	-34.400	-12.650	 H	1	SAM1	0.000	
31	 HG1	13.876	-32.450	-11.096	 H	1	SAM1	0.000	
32	 HG2	14.358	-31.388	-12.440	 H	1	SAM1	0.000	
33	 HE1	17.076	-32.654	-13.772	 H	1	SAM1	0.000	
34	 HE2	16.406	-34.222	-13.262	 H	1	SAM1	0.000	
35	 HE3	18.004	-33.703	-12.674	 H	1	SAM1	0.000	
36	  H1	12.349	-35.324	-13.777	 H	1	SAM1	0.000	
37	  H2	10.953	-34.746	-13.115	 H	1	SAM1	0.000	
38	  H2	12.359	-37.454	-4.061	 H	1	SAM1	0.000	
39	  H3	12.221	-35.153	-12.142	 H	1	SAM1	0.000	
40	  H8	17.942	-34.728	-6.276	 H	1	SAM1	0.000	
41	 H1'	14.100	-34.265	-6.683	 H	1	SAM1	0.000	
42	 H2'	16.795	-32.821	-6.931	 H	1	SAM1	0.000	
43	 H2'	15.594	-31.233	-6.089	 H	1	SAM1	0.000	
44	 H3'	15.970	-31.741	-8.872	 H	1	SAM1	0.000	
45	 H3'	14.112	-31.015	-7.843	 H	1	SAM1	0.000	
46	 H4'	14.178	-33.757	-9.719	 H	1	SAM1	0.000	
47	 H61	17.549	-38.097	-2.889	 H	1	SAM1	0.000	
48	 H62	16.245	-38.973	-2.120	 H	1	SAM1	0.000	
49	H5'1	17.187	-33.943	-9.829	 H	1	SAM1	0.000	
50	H5'2	16.027	-34.844	-10.835	 H	1	SAM1	0.000	
@<TRIPOS>BOND
1 1 2 1
2 1 36 1
3 1 37 1
4 1 39 1
5 2 3 1
6 2 5 1
7 2 28 1
8 3 4 ar
9 3 17 ar
10 5 6 1
11 5 29 1
12 5 30 1
13 6 7 1
14 6 31 1
15 6 32 1
16 7 8 1
17 7 9 1
18 8 33 1
19 8 34 1
20 8 35 1
21 9 10 1
22 9 49 1
23 9 50 1
24 10 11 1
25 10 12 1
26 10 46 1
27 11 16 1
28 12 13 1
29 12 14 1
30 12 44 1
31 13 45 1
32 14 15 1
33 14 16 1
34 14 42 1
35 15 43 1
36 16 27 1
37 16 41 1
38 18 19 ar
39 18 23 ar
40 19 20 ar
41 19 38 1
42 20 21 ar
43 21 22 ar
44 21 27 ar
45 22 23 ar
46 22 25 ar
47 23 24 1
48 24 47 1
49 24 48 1
50 25 26 ar
51 26 27 ar
52 26 40 1
@<TRIPOS>SUBSTRUCTURE
1	SAM1	1	GROUP	1 A	SAM
