# created with PyMOL 2.5.0
@<TRIPOS>MOLECULE
6J1O
27 29 1                 
SMALL
USER_CHARGES
@<TRIPOS>ATOM
1	   N	11.960	-34.760	-13.035	N.3	1	SAM401	0.000	
2	  CA	12.474	-33.401	-13.137	C.3	1	SAM401	0.000	
3	   C	12.060	-32.766	-14.463	C.2	1	SAM401	0.000	
4	   O	11.425	-31.711	-14.497	O.co2	1	SAM401	0.000	
5	  CB	13.998	-33.413	-12.991	C.3	1	SAM401	0.000	
6	  CG	14.486	-32.375	-11.996	C.3	1	SAM401	0.000	
7	  SD	16.222	-32.567	-11.525	S.3	1	SAM401	0.000	
8	  CE	17.005	-33.366	-12.950	C.3	1	SAM401	0.000	
9	 C5'	16.209	-33.907	-10.309	C.3	1	SAM401	0.000	
10	 C4'	15.149	-33.753	-9.224	C.3	1	SAM401	0.000	
11	 O4'	15.328	-34.811	-8.300	O.3	1	SAM401	0.000	
12	 C3'	15.271	-32.453	-8.433	C.3	1	SAM401	0.000	
13	 O3'	14.012	-31.800	-8.387	O.3	1	SAM401	0.000	
14	 C2'	15.715	-32.903	-7.050	C.3	1	SAM401	0.000	
15	 O2'	15.254	-32.123	-5.970	O.3	1	SAM401	0.000	
16	 C1'	15.143	-34.299	-6.999	C.3	1	SAM401	0.000	
17	 OXT	12.329	-33.300	-15.538	O.co2	1	SAM401	0.000	
18	  N1	14.333	-37.897	-3.398	N.2	1	SAM401	0.000	
19	  C2	13.410	-37.231	-4.170	C.2	1	SAM401	0.000	
20	  N3	13.816	-36.284	-5.079	N.2	1	SAM401	0.000	
21	  C4	15.148	-36.028	-5.214	C.2	1	SAM401	0.000	
22	  C5	16.100	-36.680	-4.456	C.2	1	SAM401	0.000	
23	  C6	15.681	-37.628	-3.534	C.2	1	SAM401	0.000	
24	  N6	16.562	-38.285	-2.788	N.pl3	1	SAM401	0.000	
25	  N7	17.330	-36.209	-4.813	N.2	1	SAM401	0.000	
26	  C8	17.157	-35.282	-5.782	C.2	1	SAM401	0.000	
27	  N9	15.811	-35.166	-6.030	N.2	1	SAM401	0.000	
@<TRIPOS>BOND
1 1 2 1
2 2 3 1
3 2 5 1
4 3 4 ar
5 3 17 ar
6 5 6 1
7 6 7 1
8 7 8 1
9 7 9 1
10 9 10 1
11 10 11 1
12 10 12 1
13 11 16 1
14 12 13 1
15 12 14 1
16 14 15 1
17 14 16 1
18 16 27 1
19 18 19 ar
20 18 23 ar
21 19 20 ar
22 20 21 ar
23 21 22 ar
24 21 27 ar
25 22 23 ar
26 22 25 ar
27 23 24 1
28 25 26 ar
29 26 27 ar
@<TRIPOS>SUBSTRUCTURE
1	SAM401	1	GROUP	1 A	SAM
