@<TRIPOS>MOLECULE
6J1O.A
51 53 1 0 0 
SMALL
USER_CHARGES


@<TRIPOS>ATOM
  1 N       11.9600   -34.7600   -13.0350 N.4   1 SAM  -0.8530 
  2 H1      12.3493   -35.3237   -13.7771 H     1 SAM   0.4500 
  3 H2      10.9533   -34.7461   -13.1154 H     1 SAM   0.4500 
  4 H3      12.2210   -35.1525   -12.1417 H     1 SAM   0.4500 
  5 CA      12.4740   -33.4010   -13.1370 C.3   1 SAM   0.3170 
  6 HA      12.0490   -32.8002   -12.3330 H     1 SAM   0.0800 
  7 C       12.0600   -32.7660   -14.4630 C.2   1 SAM   0.9060 
  8 O       11.4250   -31.7110   -14.4970 O.co2 1 SAM  -0.9000 
  9 CB      13.9980   -33.4130   -12.9910 C.3   1 SAM  -0.1600 
 10 HB1     14.4456   -33.2055   -13.9630 H     1 SAM   0.0800 
 11 HB2     14.3104   -34.4002   -12.6504 H     1 SAM   0.0800 
 12 CG      14.4860   -32.3750   -11.9960 C.3   1 SAM  -0.1525 
 13 HG1     13.8762   -32.4499   -11.0956 H     1 SAM   0.0800 
 14 HG2     14.3584   -31.3878   -12.4401 H     1 SAM   0.0800 
 15 SD      16.2220   -32.5670   -11.5250 S.3   1 SAM   0.9775 
 16 CE      17.0050   -33.3660   -12.9500 C.3   1 SAM  -0.2325 
 17 HE1     17.0765   -32.6537   -13.7720 H     1 SAM   0.0800 
 18 HE2     16.4057   -34.2215   -13.2616 H     1 SAM   0.0800 
 19 HE3     18.0039   -33.7035   -12.6738 H     1 SAM   0.0800 
 20 C5'     16.2090   -33.9070   -10.3090 C.3   1 SAM  -0.1525 
 21 H5'1    17.1871   -33.9433    -9.8293 H     1 SAM   0.0800 
 22 H5'2    16.0271   -34.8444   -10.8346 H     1 SAM   0.0800 
 23 C4'     15.1490   -33.7530    -9.2240 C.3   1 SAM   0.2000 
 24 H4'     14.1777   -33.7567    -9.7185 H     1 SAM   0.0800 
 25 O4'     15.3280   -34.8110    -8.3000 O.3   1 SAM  -0.5600 
 26 C3'     15.2710   -32.4530    -8.4330 C.3   1 SAM   0.2000 
 27 H3'     15.9702   -31.7412    -8.8719 H     1 SAM   0.0800 
 28 O3'     14.0120   -31.8000    -8.3870 O.3   1 SAM  -0.6800 
 29 H3'     14.1117   -31.0154    -7.8429 H     1 SAM   0.4000 
 30 C2'     15.7150   -32.9030    -7.0500 C.3   1 SAM   0.2000 
 31 H2'     16.7954   -32.8212    -6.9313 H     1 SAM   0.0800 
 32 O2'     15.2540   -32.1230    -5.9700 O.3   1 SAM  -0.6800 
 33 H2'     14.2943   -32.1354    -5.9918 H     1 SAM   0.4000 
 34 C1'     15.1430   -34.2990    -6.9990 C.3   1 SAM   0.5691 
 35 H1'     14.1004   -34.2652    -6.6827 H     1 SAM   0.0800 
 36 OXT     12.3290   -33.3000   -15.5380 O.co2 1 SAM  -0.9000 
 37 N1      14.3330   -37.8970    -3.3980 N.2   1 SAM  -0.6610 
 38 C2      13.4100   -37.2310    -4.1700 C.2   1 SAM   0.6010 
 39 H2      12.3589   -37.4539    -4.0610 H     1 SAM   0.0600 
 40 N3      13.8160   -36.2840    -5.0790 N.2   1 SAM  -0.6610 
 41 C4      15.1480   -36.0280    -5.2140 C.2   1 SAM   0.5000 
 42 C5      16.1000   -36.6800    -4.4560 C.2   1 SAM   0.4500 
 43 C6      15.6810   -37.6280    -3.5340 C.2   1 SAM   0.6110 
 44 N6      16.5620   -38.2850    -2.7880 N.2   1 SAM  -0.2000 
 45 H62     16.2447   -38.9730    -2.1201 H     1 SAM   0.4000 
 46 H61     17.5491   -38.0966    -2.8887 H     1 SAM   0.4000 
 47 N7      17.3300   -36.2090    -4.8130 N.2   1 SAM  -0.6960 
 48 C8      17.1570   -35.2820    -5.7820 C.3   1 SAM   0.4551 
 49 H81     17.6736   -35.5957    -6.6891 H     1 SAM   0.0800 
 50 H82     17.5550   -34.3230    -5.4504 H     1 SAM   0.0800 
 51 N9      15.8110   -35.1660    -6.0300 N.pl3 1 SAM  -0.7882 
@<TRIPOS>BOND
  1   1   2  1   
  2   1   3  1   
  3   1   4  1   
  4   1   5  1   
  5   5   6  1   
  6   5   7  1   
  7   5   9  1   
  8   7   8  ar  
  9   7  36  ar  
 10   9  10  1   
 11   9  11  1   
 12   9  12  1   
 13  12  13  1   
 14  12  14  1   
 15  12  15  1   
 16  15  16  1   
 17  15  20  1   
 18  16  17  1   
 19  16  18  1   
 20  16  19  1   
 21  20  21  1   
 22  20  22  1   
 23  20  23  1   
 24  23  24  1   
 25  23  25  1   
 26  23  26  1   
 27  25  34  1   
 28  26  27  1   
 29  26  28  1   
 30  26  30  1   
 31  28  29  1   
 32  30  31  1   
 33  30  32  1   
 34  30  34  1   
 35  32  33  1   
 36  34  35  1   
 37  34  51  1   
 38  37  38  2   
 39  37  43  1   
 40  38  39  1   
 41  38  40  1   
 42  40  41  2   
 43  41  42  1   
 44  41  51  1   
 45  42  43  1   
 46  42  47  2   
 47  43  44  2   
 48  44  45  1   
 49  44  46  1   
 50  47  48  1   
 51  48  49  1   
 52  48  50  1   
 53  48  51  1   
@<TRIPOS>SUBSTRUCTURE
  1 SAM  25 GROUP 4 A **** 0

# MOE 2022.02 (io_trps.svl 2020.11)
