@<TRIPOS>MOLECULE
5TEG.A
51 53 1 0 0 
SMALL
USER_CHARGES


@<TRIPOS>ATOM
  1 N       -8.7240    -1.8200    -9.4080 N.4   1 SAM  -0.8530 
  2 H1      -8.3785    -2.7683    -9.4467 H     1 SAM   0.4500 
  3 H2      -9.4650    -1.7038   -10.0844 H     1 SAM   0.4500 
  4 H3      -9.0801    -1.6289    -8.4824 H     1 SAM   0.4500 
  5 CA      -7.6170    -0.8760    -9.7180 C.3   1 SAM   0.3170 
  6 HA      -8.0505     0.1224    -9.6605 H     1 SAM   0.0800 
  7 C       -7.0270    -1.0700   -11.1670 C.2   1 SAM   0.9060 
  8 O       -6.1750    -0.2760   -11.5020 O.co2 1 SAM  -0.9000 
  9 CB      -6.4660    -1.0340    -8.6940 C.3   1 SAM  -0.1600 
 10 HB1     -5.5338    -0.7107    -9.1572 H     1 SAM   0.0800 
 11 HB2     -6.3861    -2.0836    -8.4110 H     1 SAM   0.0800 
 12 CG      -6.7190    -0.1720    -7.3970 C.3   1 SAM  -0.1525 
 13 HG1     -5.9335    -0.3850    -6.6719 H     1 SAM   0.0800 
 14 HG2     -7.6865    -0.4437    -6.9749 H     1 SAM   0.0800 
 15 SD      -6.7150     1.6270    -7.7690 S.3   1 SAM   0.9775 
 16 CE      -5.6990     2.2320    -6.4830 C.3   1 SAM  -0.2325 
 17 HE1     -4.6754     1.8906    -6.6375 H     1 SAM   0.0800 
 18 HE2     -6.0651     1.8611    -5.5257 H     1 SAM   0.0800 
 19 HE3     -5.7225     3.3217    -6.4835 H     1 SAM   0.0800 
 20 C5'     -8.2920     2.3340    -7.2550 C.3   1 SAM  -0.1525 
 21 H5'1    -8.1668     3.4149    -7.1911 H     1 SAM   0.0800 
 22 H5'2    -8.5286     1.9367    -6.2680 H     1 SAM   0.0800 
 23 C4'     -9.4820     2.0570    -8.1650 C.3   1 SAM   0.2000 
 24 H4'     -9.1990     2.3969    -9.1612 H     1 SAM   0.0800 
 25 O4'     -9.8090     0.6670    -8.0240 O.3   1 SAM  -0.5600 
 26 C3'    -10.7790     2.7400    -7.6800 C.3   1 SAM   0.2000 
 27 H3'    -10.8853     2.8226    -6.5983 H     1 SAM   0.0800 
 28 O3'    -10.8500     4.0760    -8.1310 O.3   1 SAM  -0.6800 
 29 H3'    -11.7026     4.4274    -7.8644 H     1 SAM   0.4000 
 30 C2'    -11.8460     1.8280    -8.3560 C.3   1 SAM   0.2000 
 31 H2'    -12.8644     1.9658    -7.9929 H     1 SAM   0.0800 
 32 O2'    -11.8360     2.0510    -9.7560 O.3   1 SAM  -0.6800 
 33 H2'    -12.1354     2.9502    -9.9088 H     1 SAM   0.4000 
 34 C1'    -11.1930     0.4430    -8.1130 C.3   1 SAM   0.5691 
 35 H1'    -11.4346    -0.2687    -8.9024 H     1 SAM   0.0800 
 36 OXT     -7.4890    -2.0150   -11.8480 O.co2 1 SAM  -0.9000 
 37 N1     -15.0920    -1.7900    -5.5150 N.2   1 SAM  -0.6610 
 38 C2     -15.0190    -1.3020    -6.7760 C.2   1 SAM   0.6010 
 39 H2     -15.9161    -1.4010    -7.3692 H     1 SAM   0.0600 
 40 N3     -13.9840    -0.7140    -7.3840 N.2   1 SAM  -0.6610 
 41 C4     -12.8950    -0.6030    -6.5520 C.2   1 SAM   0.5000 
 42 C5     -12.8700    -1.0560    -5.2110 C.2   1 SAM   0.4500 
 43 C6     -13.9820    -1.6610    -4.6820 C.2   1 SAM   0.6110 
 44 N6     -14.0970    -2.0880    -3.4000 N.2   1 SAM  -0.2000 
 45 H62    -14.9524    -2.5252    -3.0881 H     1 SAM   0.4000 
 46 H61    -13.3272    -1.9688    -2.7571 H     1 SAM   0.4000 
 47 N7     -11.6440    -0.7600    -4.6640 N.2   1 SAM  -0.6960 
 48 C8     -10.9480    -0.1760    -5.5970 C.3   1 SAM   0.4551 
 49 H81    -10.0458    -0.7605    -5.7774 H     1 SAM   0.0800 
 50 H82    -10.6723     0.8214    -5.2545 H     1 SAM   0.0800 
 51 N9     -11.6650    -0.0560    -6.8190 N.pl3 1 SAM  -0.7882 
@<TRIPOS>BOND
  1   1   2  1   
  2   1   3  1   
  3   1   4  1   
  4   1   5  1   
  5   5   6  1   
  6   5   7  1   
  7   5   9  1   
  8   7   8  ar  
  9   7  36  ar  
 10   9  10  1   
 11   9  11  1   
 12   9  12  1   
 13  12  13  1   
 14  12  14  1   
 15  12  15  1   
 16  15  16  1   
 17  15  20  1   
 18  16  17  1   
 19  16  18  1   
 20  16  19  1   
 21  20  21  1   
 22  20  22  1   
 23  20  23  1   
 24  23  24  1   
 25  23  25  1   
 26  23  26  1   
 27  25  34  1   
 28  26  27  1   
 29  26  28  1   
 30  26  30  1   
 31  28  29  1   
 32  30  31  1   
 33  30  32  1   
 34  30  34  1   
 35  32  33  1   
 36  34  35  1   
 37  34  51  1   
 38  37  38  2   
 39  37  43  1   
 40  38  39  1   
 41  38  40  1   
 42  40  41  2   
 43  41  42  1   
 44  41  51  1   
 45  42  43  1   
 46  42  47  2   
 47  43  44  2   
 48  44  45  1   
 49  44  46  1   
 50  47  48  1   
 51  48  49  1   
 52  48  50  1   
 53  48  51  1   
@<TRIPOS>SUBSTRUCTURE
  1 SAM  25 GROUP 4 A **** 0

# MOE 2022.02 (io_trps.svl 2020.11)
