# created with PyMOL 2.4.0
@<TRIPOS>MOLECULE
temp
50 52 1                 
SMALL
USER_CHARGES
@<TRIPOS>ATOM
1	   N	-8.724	-1.820	-9.408	N.4	1	SAM1	0.000	
2	  CA	-7.617	-0.876	-9.718	C.3	1	SAM1	0.000	
3	   C	-7.027	-1.070	-11.167	C.2	1	SAM1	0.000	
4	   O	-6.175	-0.276	-11.502	O.co2	1	SAM1	0.000	
5	  CB	-6.466	-1.034	-8.694	C.3	1	SAM1	0.000	
6	  CG	-6.719	-0.172	-7.397	C.3	1	SAM1	0.000	
7	  SD	-6.715	1.627	-7.769	S.3	1	SAM1	0.000	
8	  CE	-5.699	2.232	-6.483	C.3	1	SAM1	0.000	
9	 C5'	-8.292	2.334	-7.255	C.3	1	SAM1	0.000	
10	 C4'	-9.482	2.057	-8.165	C.3	1	SAM1	0.000	
11	 O4'	-9.809	0.667	-8.024	O.3	1	SAM1	0.000	
12	 C3'	-10.779	2.740	-7.680	C.3	1	SAM1	0.000	
13	 O3'	-10.850	4.076	-8.131	O.3	1	SAM1	0.000	
14	 C2'	-11.846	1.828	-8.356	C.3	1	SAM1	0.000	
15	 O2'	-11.836	2.051	-9.756	O.3	1	SAM1	0.000	
16	 C1'	-11.193	0.443	-8.113	C.3	1	SAM1	0.000	
17	 OXT	-7.489	-2.015	-11.848	O.co2	1	SAM1	0.000	
18	  N1	-15.092	-1.790	-5.515	N.2	1	SAM1	0.000	
19	  C2	-15.019	-1.302	-6.776	C.2	1	SAM1	0.000	
20	  N3	-13.984	-0.714	-7.384	N.2	1	SAM1	0.000	
21	  C4	-12.895	-0.603	-6.552	C.2	1	SAM1	0.000	
22	  C5	-12.870	-1.056	-5.211	C.2	1	SAM1	0.000	
23	  C6	-13.982	-1.661	-4.682	C.2	1	SAM1	0.000	
24	  N6	-14.097	-2.088	-3.400	N.pl3	1	SAM1	0.000	
25	  N7	-11.644	-0.760	-4.664	N.2	1	SAM1	0.000	
26	  C8	-10.948	-0.176	-5.597	C.2	1	SAM1	0.000	
27	  N9	-11.665	-0.056	-6.819	N.2	1	SAM1	0.000	
28	  HA	-8.050	0.122	-9.660	 H	1	SAM1	0.000	
29	 HB1	-5.534	-0.711	-9.157	 H	1	SAM1	0.000	
30	 HB2	-6.386	-2.084	-8.411	 H	1	SAM1	0.000	
31	 HG1	-5.933	-0.385	-6.672	 H	1	SAM1	0.000	
32	 HG2	-7.687	-0.444	-6.975	 H	1	SAM1	0.000	
33	 HE1	-4.675	1.891	-6.637	 H	1	SAM1	0.000	
34	 HE2	-6.065	1.861	-5.526	 H	1	SAM1	0.000	
35	 HE3	-5.722	3.322	-6.484	 H	1	SAM1	0.000	
36	  H1	-8.378	-2.768	-9.447	 H	1	SAM1	0.000	
37	  H2	-9.465	-1.704	-10.084	 H	1	SAM1	0.000	
38	  H2	-15.916	-1.401	-7.369	 H	1	SAM1	0.000	
39	  H3	-9.080	-1.629	-8.482	 H	1	SAM1	0.000	
40	  H8	-9.937	0.178	-5.458	 H	1	SAM1	0.000	
41	 H1'	-11.435	-0.269	-8.902	 H	1	SAM1	0.000	
42	 H2'	-12.864	1.966	-7.993	 H	1	SAM1	0.000	
43	 H2'	-12.135	2.950	-9.909	 H	1	SAM1	0.000	
44	 H3'	-10.885	2.823	-6.598	 H	1	SAM1	0.000	
45	 H3'	-11.703	4.427	-7.864	 H	1	SAM1	0.000	
46	 H4'	-9.199	2.397	-9.161	 H	1	SAM1	0.000	
47	 H61	-13.327	-1.969	-2.757	 H	1	SAM1	0.000	
48	 H62	-14.952	-2.525	-3.088	 H	1	SAM1	0.000	
49	H5'1	-8.167	3.415	-7.191	 H	1	SAM1	0.000	
50	H5'2	-8.529	1.937	-6.268	 H	1	SAM1	0.000	
@<TRIPOS>BOND
1 1 2 1
2 1 36 1
3 1 37 1
4 1 39 1
5 2 3 1
6 2 5 1
7 2 28 1
8 3 4 ar
9 3 17 ar
10 5 6 1
11 5 29 1
12 5 30 1
13 6 7 1
14 6 31 1
15 6 32 1
16 7 8 1
17 7 9 1
18 8 33 1
19 8 34 1
20 8 35 1
21 9 10 1
22 9 49 1
23 9 50 1
24 10 11 1
25 10 12 1
26 10 46 1
27 11 16 1
28 12 13 1
29 12 14 1
30 12 44 1
31 13 45 1
32 14 15 1
33 14 16 1
34 14 42 1
35 15 43 1
36 16 27 1
37 16 41 1
38 18 19 ar
39 18 23 ar
40 19 20 ar
41 19 38 1
42 20 21 ar
43 21 22 ar
44 21 27 ar
45 22 23 ar
46 22 25 ar
47 23 24 1
48 24 47 1
49 24 48 1
50 25 26 ar
51 26 27 ar
52 26 40 1
@<TRIPOS>SUBSTRUCTURE
1	SAM1	1	GROUP	1 A	SAM
