# created with PyMOL 2.5.0
@<TRIPOS>MOLECULE
5TEG
27 29 1                 
SMALL
USER_CHARGES
@<TRIPOS>ATOM
1	   N	-8.724	-1.820	-9.408	N.3	1	SAM401	0.000	
2	  CA	-7.617	-0.876	-9.718	C.3	1	SAM401	0.000	
3	   C	-7.027	-1.070	-11.167	C.2	1	SAM401	0.000	
4	   O	-6.175	-0.276	-11.502	O.co2	1	SAM401	0.000	
5	  CB	-6.466	-1.034	-8.694	C.3	1	SAM401	0.000	
6	  CG	-6.719	-0.172	-7.397	C.3	1	SAM401	0.000	
7	  SD	-6.715	1.627	-7.769	S.3	1	SAM401	0.000	
8	  CE	-5.699	2.232	-6.483	C.3	1	SAM401	0.000	
9	 C5'	-8.292	2.334	-7.255	C.3	1	SAM401	0.000	
10	 C4'	-9.482	2.057	-8.165	C.3	1	SAM401	0.000	
11	 O4'	-9.809	0.667	-8.024	O.3	1	SAM401	0.000	
12	 C3'	-10.779	2.740	-7.680	C.3	1	SAM401	0.000	
13	 O3'	-10.850	4.076	-8.131	O.3	1	SAM401	0.000	
14	 C2'	-11.846	1.828	-8.356	C.3	1	SAM401	0.000	
15	 O2'	-11.836	2.051	-9.756	O.3	1	SAM401	0.000	
16	 C1'	-11.193	0.443	-8.113	C.3	1	SAM401	0.000	
17	 OXT	-7.489	-2.015	-11.848	O.co2	1	SAM401	0.000	
18	  N1	-15.092	-1.790	-5.515	N.2	1	SAM401	0.000	
19	  C2	-15.019	-1.302	-6.776	C.2	1	SAM401	0.000	
20	  N3	-13.984	-0.714	-7.384	N.2	1	SAM401	0.000	
21	  C4	-12.895	-0.603	-6.552	C.2	1	SAM401	0.000	
22	  C5	-12.870	-1.056	-5.211	C.2	1	SAM401	0.000	
23	  C6	-13.982	-1.661	-4.682	C.2	1	SAM401	0.000	
24	  N6	-14.097	-2.088	-3.400	N.pl3	1	SAM401	0.000	
25	  N7	-11.644	-0.760	-4.664	N.2	1	SAM401	0.000	
26	  C8	-10.948	-0.176	-5.597	C.2	1	SAM401	0.000	
27	  N9	-11.665	-0.056	-6.819	N.2	1	SAM401	0.000	
@<TRIPOS>BOND
1 1 2 1
2 2 3 1
3 2 5 1
4 3 4 ar
5 3 17 ar
6 5 6 1
7 6 7 1
8 7 8 1
9 7 9 1
10 9 10 1
11 10 11 1
12 10 12 1
13 11 16 1
14 12 13 1
15 12 14 1
16 14 15 1
17 14 16 1
18 16 27 1
19 18 19 ar
20 18 23 ar
21 19 20 ar
22 20 21 ar
23 21 22 ar
24 21 27 ar
25 22 23 ar
26 22 25 ar
27 23 24 1
28 25 26 ar
29 26 27 ar
@<TRIPOS>SUBSTRUCTURE
1	SAM401	1	GROUP	1 A	SAM
