# created with PyMOL 2.5.0
@<TRIPOS>MOLECULE
7BTV
27 29 1                 
SMALL
USER_CHARGES
@<TRIPOS>ATOM
1	   N	6.918	19.461	26.474	N.pl3	1	N471506	0.000	
2	   C	5.581	18.976	26.758	C.3	1	N471506	0.000	
3	   O	6.571	11.159	29.176	O.3	1	N471506	0.000	
4	  C1	8.003	18.645	26.764	C.2	1	N471506	0.000	
5	  N1	7.736	17.438	27.312	N.2	1	N471506	0.000	
6	  O1	3.958	12.467	29.364	O.3	1	N471506	0.000	
7	  C2	8.780	16.657	27.572	C.2	1	N471506	0.000	
8	  N2	8.577	15.402	28.131	N.pl3	1	N471506	0.000	
9	  C3	7.431	14.684	28.441	C.2	1	N471506	0.000	
10	  N3	6.776	8.041	27.551	N.3	1	N471506	0.000	
11	  C4	7.500	13.295	28.668	C.2	1	N471506	0.000	
12	  N4	10.049	16.991	27.374	N.2	1	N471506	0.000	
13	  C5	6.356	12.534	28.987	C.2	1	N471506	0.000	
14	  C6	7.895	10.651	29.338	C.3	1	N471506	0.000	
15	  C7	7.817	9.121	29.496	C.3	1	N471506	0.000	
16	  C8	6.520	8.486	28.930	C.3	1	N471506	0.000	
17	  C9	5.637	7.348	26.964	C.3	1	N471506	0.000	
18	 C10	6.202	6.414	25.873	C.3	1	N471506	0.000	
19	 C11	7.723	6.472	26.025	C.3	1	N471506	0.000	
20	 C12	7.842	7.045	27.437	C.3	1	N471506	0.000	
21	 C13	5.094	13.205	29.076	C.2	1	N471506	0.000	
22	 C14	2.680	13.097	29.490	C.3	1	N471506	0.000	
23	 C15	5.032	14.601	28.848	C.2	1	N471506	0.000	
24	 C16	6.182	15.336	28.536	C.2	1	N471506	0.000	
25	 C17	10.322	18.208	26.822	C.2	1	N471506	0.000	
26	 C18	11.782	18.573	26.588	C.3	1	N471506	0.000	
27	 C19	9.296	19.104	26.497	C.2	1	N471506	0.000	
@<TRIPOS>BOND
1 1 2 1
2 1 4 1
3 3 13 1
4 3 14 1
5 4 5 ar
6 4 27 ar
7 5 7 ar
8 6 21 1
9 6 22 1
10 7 8 1
11 7 12 ar
12 8 9 1
13 9 11 ar
14 9 24 ar
15 10 16 1
16 10 17 1
17 10 20 1
18 11 13 ar
19 12 25 ar
20 13 21 ar
21 14 15 1
22 15 16 1
23 17 18 1
24 18 19 1
25 19 20 1
26 21 23 ar
27 23 24 ar
28 25 26 1
29 25 27 ar
@<TRIPOS>SUBSTRUCTURE
1	N471506	1	GROUP	1 A	N47
