# created with PyMOL 2.5.0
@<TRIPOS>MOLECULE
7BTV
27 29 1                 
SMALL
USER_CHARGES
@<TRIPOS>ATOM
1	   N	36.745	19.470	-9.914	N.pl3	1	N471506	0.000	
2	   C	37.943	18.783	-10.381	C.3	1	N471506	0.000	
3	   O	36.103	11.556	-13.590	O.3	1	N471506	0.000	
4	  C1	35.521	18.896	-10.229	C.2	1	N471506	0.000	
5	  N1	35.618	17.738	-10.911	N.2	1	N471506	0.000	
6	  O1	38.882	12.523	-13.693	O.3	1	N471506	0.000	
7	  C2	34.516	17.087	-11.263	C.2	1	N471506	0.000	
8	  N2	34.633	15.892	-12.012	N.pl3	1	N471506	0.000	
9	  C3	35.674	15.054	-12.443	C.2	1	N471506	0.000	
10	  N3	35.647	8.262	-12.291	N.3	1	N471506	0.000	
11	  C4	35.424	13.703	-12.826	C.2	1	N471506	0.000	
12	  N4	33.290	17.521	-10.975	N.2	1	N471506	0.000	
13	  C5	36.472	12.837	-13.240	C.2	1	N471506	0.000	
14	  C6	34.756	11.020	-13.476	C.3	1	N471506	0.000	
15	  C7	34.763	9.658	-14.194	C.3	1	N471506	0.000	
16	  C8	35.821	8.644	-13.699	C.3	1	N471506	0.000	
17	  C9	36.759	7.405	-11.786	C.3	1	N471506	0.000	
18	 C10	36.102	6.387	-10.816	C.3	1	N471506	0.000	
19	 C11	34.638	6.837	-10.671	C.3	1	N471506	0.000	
20	 C12	34.386	7.528	-12.029	C.3	1	N471506	0.000	
21	 C13	37.836	13.332	-13.288	C.2	1	N471506	0.000	
22	 C14	40.238	12.953	-13.530	C.3	1	N471506	0.000	
23	 C15	38.076	14.679	-12.902	C.2	1	N471506	0.000	
24	 C16	37.012	15.530	-12.496	C.2	1	N471506	0.000	
25	 C17	33.153	18.678	-10.259	C.2	1	N471506	0.000	
26	 C18	31.726	19.097	-9.939	C.3	1	N471506	0.000	
27	 C19	34.275	19.442	-9.848	C.2	1	N471506	0.000	
@<TRIPOS>BOND
1 1 2 1
2 1 4 1
3 3 13 1
4 3 14 1
5 4 5 ar
6 4 27 ar
7 5 7 ar
8 6 21 1
9 6 22 1
10 7 8 1
11 7 12 ar
12 8 9 1
13 9 11 ar
14 9 24 ar
15 10 16 1
16 10 17 1
17 10 20 1
18 11 13 ar
19 12 25 ar
20 13 21 ar
21 14 15 1
22 15 16 1
23 17 18 1
24 18 19 1
25 19 20 1
26 21 23 ar
27 23 24 ar
28 25 26 1
29 25 27 ar
@<TRIPOS>SUBSTRUCTURE
1	N471506	1	GROUP	1 B	N47
