# created with PyMOL 2.4.0
@<TRIPOS>MOLECULE
temp
50 52 1                 
SMALL
USER_CHARGES
@<TRIPOS>ATOM
1	   N	-1.322	1.131	25.614	N.4	1	SAM1	0.000	
2	  CA	-0.882	2.081	24.563	C.3	1	SAM1	0.000	
3	   C	-1.708	1.827	23.301	C.2	1	SAM1	0.000	
4	   O	-2.655	1.012	23.391	O.co2	1	SAM1	0.000	
5	  CB	0.605	1.875	24.225	C.3	1	SAM1	0.000	
6	  CG	1.564	2.529	25.200	C.3	1	SAM1	0.000	
7	  SD	1.466	4.317	24.854	S.3	1	SAM1	0.000	
8	  CE	3.187	4.809	24.750	C.3	1	SAM1	0.000	
9	 C5'	1.089	5.033	26.497	C.3	1	SAM1	0.000	
10	 C4'	-0.388	5.037	26.912	C.3	1	SAM1	0.000	
11	 O4'	-0.817	3.685	27.239	O.3	1	SAM1	0.000	
12	 C3'	-0.692	5.820	28.190	C.3	1	SAM1	0.000	
13	 O3'	-0.863	7.216	28.005	O.3	1	SAM1	0.000	
14	 C2'	-2.011	5.166	28.605	C.3	1	SAM1	0.000	
15	 O2'	-3.038	5.506	27.695	O.3	1	SAM1	0.000	
16	 C1'	-1.621	3.706	28.412	C.3	1	SAM1	0.000	
17	 OXT	-1.365	2.457	22.268	O.co2	1	SAM1	0.000	
18	  N1	-1.729	2.091	33.374	N.2	1	SAM1	0.000	
19	  C2	-2.658	2.675	32.605	C.2	1	SAM1	0.000	
20	  N3	-2.567	3.088	31.338	N.2	1	SAM1	0.000	
21	  C4	-1.353	2.831	30.818	C.2	1	SAM1	0.000	
22	  C5	-0.301	2.237	31.491	C.2	1	SAM1	0.000	
23	  C6	-0.505	1.853	32.834	C.2	1	SAM1	0.000	
24	  N6	0.432	1.274	33.586	N.pl3	1	SAM1	0.000	
25	  N7	0.798	2.134	30.654	N.2	1	SAM1	0.000	
26	  C8	0.402	2.649	29.516	C.2	1	SAM1	0.000	
27	  N9	-0.892	3.106	29.541	N.2	1	SAM1	0.000	
28	  HA	-1.022	3.099	24.927	 H	1	SAM1	0.000	
29	 HB1	0.790	2.290	23.234	 H	1	SAM1	0.000	
30	 HB2	0.807	0.804	24.214	 H	1	SAM1	0.000	
31	 HG1	2.579	2.165	25.039	 H	1	SAM1	0.000	
32	 HG2	1.263	2.323	26.227	 H	1	SAM1	0.000	
33	 HE1	3.608	4.462	23.806	 H	1	SAM1	0.000	
34	 HE2	3.742	4.368	25.579	 H	1	SAM1	0.000	
35	 HE3	3.258	5.895	24.802	 H	1	SAM1	0.000	
36	  H1	-1.196	0.184	25.286	 H	1	SAM1	0.000	
37	  H2	-2.298	1.288	25.823	 H	1	SAM1	0.000	
38	  H2	-3.616	2.834	33.077	 H	1	SAM1	0.000	
39	  H3	-0.772	1.274	26.449	 H	1	SAM1	0.000	
40	  H8	1.034	2.708	28.642	 H	1	SAM1	0.000	
41	 H1'	-2.526	3.103	28.334	 H	1	SAM1	0.000	
42	 H2'	-2.382	5.441	29.592	 H	1	SAM1	0.000	
43	 H2'	-3.193	6.450	27.771	 H	1	SAM1	0.000	
44	 H3'	0.123	5.774	28.912	 H	1	SAM1	0.000	
45	 H3'	-1.085	7.597	28.858	 H	1	SAM1	0.000	
46	 H4'	-0.894	5.490	26.059	 H	1	SAM1	0.000	
47	 H61	1.346	1.088	33.199	 H	1	SAM1	0.000	
48	 H62	0.227	1.021	34.542	 H	1	SAM1	0.000	
49	H5'1	1.437	6.066	26.497	 H	1	SAM1	0.000	
50	H5'2	1.642	4.463	27.243	 H	1	SAM1	0.000	
@<TRIPOS>BOND
1 1 2 1
2 1 36 1
3 1 37 1
4 1 39 1
5 2 3 1
6 2 5 1
7 2 28 1
8 3 4 ar
9 3 17 ar
10 5 6 1
11 5 29 1
12 5 30 1
13 6 7 1
14 6 31 1
15 6 32 1
16 7 8 1
17 7 9 1
18 8 33 1
19 8 34 1
20 8 35 1
21 9 10 1
22 9 49 1
23 9 50 1
24 10 11 1
25 10 12 1
26 10 46 1
27 11 16 1
28 12 13 1
29 12 14 1
30 12 44 1
31 13 45 1
32 14 15 1
33 14 16 1
34 14 42 1
35 15 43 1
36 16 27 1
37 16 41 1
38 18 19 ar
39 18 23 ar
40 19 20 ar
41 19 38 1
42 20 21 ar
43 21 22 ar
44 21 27 ar
45 22 23 ar
46 22 25 ar
47 23 24 1
48 24 47 1
49 24 48 1
50 25 26 ar
51 26 27 ar
52 26 40 1
@<TRIPOS>SUBSTRUCTURE
1	SAM1	1	GROUP	1 A	SAM
