# created with PyMOL 2.5.0
@<TRIPOS>MOLECULE
7BTV
27 29 1                 
SMALL
USER_CHARGES
@<TRIPOS>ATOM
1	   N	42.875	-0.065	-10.962	N.3	1	SAM1505	0.000	
2	  CA	42.517	0.975	-9.958	C.3	1	SAM1505	0.000	
3	   C	43.280	0.678	-8.673	C.2	1	SAM1505	0.000	
4	   O	44.170	-0.161	-8.743	O.co2	1	SAM1505	0.000	
5	  CB	41.003	0.997	-9.677	C.3	1	SAM1505	0.000	
6	  CG	40.226	1.972	-10.574	C.3	1	SAM1505	0.000	
7	  SD	40.433	3.697	-9.973	S.3	1	SAM1505	0.000	
8	  CE	38.726	4.197	-9.907	C.3	1	SAM1505	0.000	
9	 C5'	40.861	4.509	-11.538	C.3	1	SAM1505	0.000	
10	 C4'	42.329	4.375	-11.915	C.3	1	SAM1505	0.000	
11	 O4'	42.608	3.020	-12.351	O.3	1	SAM1505	0.000	
12	 C3'	42.755	5.251	-13.087	C.3	1	SAM1505	0.000	
13	 O3'	43.016	6.584	-12.644	O.3	1	SAM1505	0.000	
14	 C2'	43.974	4.468	-13.568	C.3	1	SAM1505	0.000	
15	 O2'	44.997	4.545	-12.602	O.3	1	SAM1505	0.000	
16	 C1'	43.424	3.048	-13.512	C.3	1	SAM1505	0.000	
17	 OXT	42.944	1.299	-7.654	O.co2	1	SAM1505	0.000	
18	  N1	43.399	1.844	-18.570	N.2	1	SAM1505	0.000	
19	  C2	44.390	2.187	-17.734	C.2	1	SAM1505	0.000	
20	  N3	44.342	2.478	-16.433	N.2	1	SAM1505	0.000	
21	  C4	43.085	2.401	-15.968	C.2	1	SAM1505	0.000	
22	  C5	41.964	2.068	-16.711	C.2	1	SAM1505	0.000	
23	  C6	42.137	1.776	-18.080	C.2	1	SAM1505	0.000	
24	  N6	41.144	1.437	-18.908	N.pl3	1	SAM1505	0.000	
25	  N7	40.835	2.106	-15.905	N.2	1	SAM1505	0.000	
26	  C8	41.282	2.456	-14.722	C.2	1	SAM1505	0.000	
27	  N9	42.640	2.650	-14.685	N.2	1	SAM1505	0.000	
@<TRIPOS>BOND
1 1 2 1
2 2 3 1
3 2 5 1
4 3 4 ar
5 3 17 ar
6 5 6 1
7 6 7 1
8 7 8 1
9 7 9 1
10 9 10 1
11 10 11 1
12 10 12 1
13 11 16 1
14 12 13 1
15 12 14 1
16 14 15 1
17 14 16 1
18 16 27 1
19 18 19 ar
20 18 23 ar
21 19 20 ar
22 20 21 ar
23 21 22 ar
24 21 27 ar
25 22 23 ar
26 22 25 ar
27 23 24 1
28 25 26 ar
29 26 27 ar
@<TRIPOS>SUBSTRUCTURE
1	SAM1505	1	GROUP	1 B	SAM
