# created with PyMOL 2.5.0
@<TRIPOS>MOLECULE
7BTV
27 29 1                 
SMALL
USER_CHARGES
@<TRIPOS>ATOM
1	   N	-1.322	1.131	25.614	N.3	1	SAM1505	0.000	
2	  CA	-0.882	2.081	24.563	C.3	1	SAM1505	0.000	
3	   C	-1.708	1.827	23.301	C.2	1	SAM1505	0.000	
4	   O	-2.655	1.012	23.391	O.co2	1	SAM1505	0.000	
5	  CB	0.605	1.875	24.225	C.3	1	SAM1505	0.000	
6	  CG	1.564	2.529	25.200	C.3	1	SAM1505	0.000	
7	  SD	1.466	4.317	24.854	S.3	1	SAM1505	0.000	
8	  CE	3.187	4.809	24.750	C.3	1	SAM1505	0.000	
9	 C5'	1.089	5.033	26.497	C.3	1	SAM1505	0.000	
10	 C4'	-0.388	5.037	26.912	C.3	1	SAM1505	0.000	
11	 O4'	-0.817	3.685	27.239	O.3	1	SAM1505	0.000	
12	 C3'	-0.692	5.820	28.190	C.3	1	SAM1505	0.000	
13	 O3'	-0.863	7.216	28.005	O.3	1	SAM1505	0.000	
14	 C2'	-2.011	5.166	28.605	C.3	1	SAM1505	0.000	
15	 O2'	-3.038	5.506	27.695	O.3	1	SAM1505	0.000	
16	 C1'	-1.621	3.706	28.412	C.3	1	SAM1505	0.000	
17	 OXT	-1.365	2.457	22.268	O.co2	1	SAM1505	0.000	
18	  N1	-1.729	2.091	33.374	N.2	1	SAM1505	0.000	
19	  C2	-2.658	2.675	32.605	C.2	1	SAM1505	0.000	
20	  N3	-2.567	3.088	31.338	N.2	1	SAM1505	0.000	
21	  C4	-1.353	2.831	30.818	C.2	1	SAM1505	0.000	
22	  C5	-0.301	2.237	31.491	C.2	1	SAM1505	0.000	
23	  C6	-0.505	1.853	32.834	C.2	1	SAM1505	0.000	
24	  N6	0.432	1.274	33.586	N.pl3	1	SAM1505	0.000	
25	  N7	0.798	2.134	30.654	N.2	1	SAM1505	0.000	
26	  C8	0.402	2.649	29.516	C.2	1	SAM1505	0.000	
27	  N9	-0.892	3.106	29.541	N.2	1	SAM1505	0.000	
@<TRIPOS>BOND
1 1 2 1
2 2 3 1
3 2 5 1
4 3 4 ar
5 3 17 ar
6 5 6 1
7 6 7 1
8 7 8 1
9 7 9 1
10 9 10 1
11 10 11 1
12 10 12 1
13 11 16 1
14 12 13 1
15 12 14 1
16 14 15 1
17 14 16 1
18 16 27 1
19 18 19 ar
20 18 23 ar
21 19 20 ar
22 20 21 ar
23 21 22 ar
24 21 27 ar
25 22 23 ar
26 22 25 ar
27 23 24 1
28 25 26 ar
29 26 27 ar
@<TRIPOS>SUBSTRUCTURE
1	SAM1505	1	GROUP	1 A	SAM
