@<TRIPOS>MOLECULE
7BTV.B
51 53 1 0 0 
SMALL
USER_CHARGES


@<TRIPOS>ATOM
  1 N       42.8750    -0.0650   -10.9620 N.4   1 SAM  -0.8530 
  2 H1      42.6276    -0.9768   -10.6050 H     1 SAM   0.4500 
  3 H2      43.8684    -0.0319   -11.1415 H     1 SAM   0.4500 
  4 H3      42.3719     0.1084   -11.8204 H     1 SAM   0.4500 
  5 CA      42.5170     0.9750    -9.9580 C.3   1 SAM   0.3170 
  6 HA      42.7869     1.9555   -10.3503 H     1 SAM   0.0800 
  7 C       43.2800     0.6780    -8.6730 C.2   1 SAM   0.9060 
  8 O       44.1700    -0.1610    -8.7430 O.co2 1 SAM  -0.9000 
  9 CB      41.0030     0.9970    -9.6770 C.3   1 SAM  -0.1600 
 10 HB1     40.8494     1.2877    -8.6378 H     1 SAM   0.0800 
 11 HB2     40.6083    -0.0066    -9.8357 H     1 SAM   0.0800 
 12 CG      40.2260     1.9720   -10.5740 C.3   1 SAM  -0.1525 
 13 HG1     39.1680     1.7102   -10.5575 H     1 SAM   0.0800 
 14 HG2     40.6024     1.8993   -11.5944 H     1 SAM   0.0800 
 15 SD      40.4330     3.6970    -9.9730 S.3   1 SAM   0.9775 
 16 CE      38.7260     4.1970    -9.9070 C.3   1 SAM  -0.2325 
 17 HE1     38.2647     3.7964    -9.0043 H     1 SAM   0.0800 
 18 HE2     38.2015     3.8155   -10.7830 H     1 SAM   0.0800 
 19 HE3     38.6664     5.2853    -9.8933 H     1 SAM   0.0800 
 20 C5'     40.8610     4.5090   -11.5380 C.3   1 SAM  -0.1525 
 21 H5'1    40.6232     5.5693   -11.4519 H     1 SAM   0.0800 
 22 H5'2    40.2600     4.0651   -12.3316 H     1 SAM   0.0800 
 23 C4'     42.3290     4.3750   -11.9150 C.3   1 SAM   0.2000 
 24 H4'     42.8684     4.6719   -11.0156 H     1 SAM   0.0800 
 25 O4'     42.6080     3.0200   -12.3510 O.3   1 SAM  -0.5600 
 26 C3'     42.7550     5.2510   -13.0870 C.3   1 SAM   0.2000 
 27 H3'     42.0258     5.4118   -13.8810 H     1 SAM   0.0800 
 28 O3'     43.0160     6.5840   -12.6440 O.3   1 SAM  -0.6800 
 29 H3'     43.3619     7.0760   -13.3922 H     1 SAM   0.4000 
 30 C2'     43.9740     4.4680   -13.5680 C.3   1 SAM   0.2000 
 31 H2'     44.3738     4.8040   -14.5248 H     1 SAM   0.0800 
 32 O2'     44.9970     4.5450   -12.6020 O.3   1 SAM  -0.6800 
 33 H2'     45.2797     5.4610   -12.5509 H     1 SAM   0.4000 
 34 C1'     43.4240     3.0480   -13.5120 C.3   1 SAM   0.5691 
 35 H1'     44.2521     2.3395   -13.4911 H     1 SAM   0.0800 
 36 OXT     42.9440     1.2990    -7.6540 O.co2 1 SAM  -0.9000 
 37 N1      43.3990     1.8440   -18.5700 N.2   1 SAM  -0.6610 
 38 C2      44.3900     2.1870   -17.7340 C.2   1 SAM   0.6010 
 39 H2      45.3724     2.2347   -18.1801 H     1 SAM   0.0600 
 40 N3      44.3420     2.4780   -16.4330 N.2   1 SAM  -0.6610 
 41 C4      43.0850     2.4010   -15.9680 C.2   1 SAM   0.5000 
 42 C5      41.9640     2.0680   -16.7110 C.2   1 SAM   0.4500 
 43 C6      42.1370     1.7760   -18.0800 C.2   1 SAM   0.6110 
 44 N6      41.1440     1.4370   -18.9080 N.2   1 SAM  -0.2000 
 45 H62     41.3409     1.2409   -19.8790 H     1 SAM   0.4000 
 46 H61     40.1968     1.3770   -18.5627 H     1 SAM   0.4000 
 47 N7      40.8350     2.1060   -15.9050 N.2   1 SAM  -0.6960 
 48 C8      41.2820     2.4560   -14.7220 C.3   1 SAM   0.4551 
 49 H81     41.0262     1.6709   -14.0105 H     1 SAM   0.0800 
 50 H82     40.7927     3.3850   -14.4294 H     1 SAM   0.0800 
 51 N9      42.6400     2.6500   -14.6850 N.pl3 1 SAM  -0.7882 
@<TRIPOS>BOND
  1   1   2  1   
  2   1   3  1   
  3   1   4  1   
  4   1   5  1   
  5   5   6  1   
  6   5   7  1   
  7   5   9  1   
  8   7   8  ar  
  9   7  36  ar  
 10   9  10  1   
 11   9  11  1   
 12   9  12  1   
 13  12  13  1   
 14  12  14  1   
 15  12  15  1   
 16  15  16  1   
 17  15  20  1   
 18  16  17  1   
 19  16  18  1   
 20  16  19  1   
 21  20  21  1   
 22  20  22  1   
 23  20  23  1   
 24  23  24  1   
 25  23  25  1   
 26  23  26  1   
 27  25  34  1   
 28  26  27  1   
 29  26  28  1   
 30  26  30  1   
 31  28  29  1   
 32  30  31  1   
 33  30  32  1   
 34  30  34  1   
 35  32  33  1   
 36  34  35  1   
 37  34  51  1   
 38  37  38  2   
 39  37  43  1   
 40  38  39  1   
 41  38  40  1   
 42  40  41  2   
 43  41  42  1   
 44  41  51  1   
 45  42  43  1   
 46  42  47  2   
 47  43  44  2   
 48  44  45  1   
 49  44  46  1   
 50  47  48  1   
 51  48  49  1   
 52  48  50  1   
 53  48  51  1   
@<TRIPOS>SUBSTRUCTURE
  1 SAM  25 GROUP 4 B **** 0

# MOE 2022.02 (io_trps.svl 2020.11)
