@<TRIPOS>MOLECULE
7BTV.A
51 53 1 0 0 
SMALL
USER_CHARGES


@<TRIPOS>ATOM
  1 N       -1.3220     1.1310    25.6140 N.4   1 SAM  -0.8530 
  2 H1      -1.1958     0.1841    25.2861 H     1 SAM   0.4500 
  3 H2      -2.2977     1.2878    25.8225 H     1 SAM   0.4500 
  4 H3      -0.7721     1.2743    26.4490 H     1 SAM   0.4500 
  5 CA      -0.8820     2.0810    24.5630 C.3   1 SAM   0.3170 
  6 HA      -1.0224     3.0988    24.9270 H     1 SAM   0.0800 
  7 C       -1.7080     1.8270    23.3010 C.2   1 SAM   0.9060 
  8 O       -2.6550     1.0120    23.3910 O.co2 1 SAM  -0.9000 
  9 CB       0.6050     1.8750    24.2250 C.3   1 SAM  -0.1600 
 10 HB1      0.7903     2.2898    23.2342 H     1 SAM   0.0800 
 11 HB2      0.8072     0.8040    24.2141 H     1 SAM   0.0800 
 12 CG       1.5640     2.5290    25.2000 C.3   1 SAM  -0.1525 
 13 HG1      2.5786     2.1648    25.0387 H     1 SAM   0.0800 
 14 HG2      1.2628     2.3226    26.2270 H     1 SAM   0.0800 
 15 SD       1.4660     4.3170    24.8540 S.3   1 SAM   0.9775 
 16 CE       3.1870     4.8090    24.7500 C.3   1 SAM  -0.2325 
 17 HE1      3.6076     4.4622    23.8061 H     1 SAM   0.0800 
 18 HE2      3.7416     4.3684    25.5785 H     1 SAM   0.0800 
 19 HE3      3.2581     5.8954    24.8022 H     1 SAM   0.0800 
 20 C5'      1.0890     5.0330    26.4970 C.3   1 SAM  -0.1525 
 21 H5'1     1.4372     6.0659    26.4974 H     1 SAM   0.0800 
 22 H5'2     1.6424     4.4627    27.2431 H     1 SAM   0.0800 
 23 C4'     -0.3880     5.0370    26.9120 C.3   1 SAM   0.2000 
 24 H4'     -0.8944     5.4897    26.0595 H     1 SAM   0.0800 
 25 O4'     -0.8170     3.6850    27.2390 O.3   1 SAM  -0.5600 
 26 C3'     -0.6920     5.8200    28.1900 C.3   1 SAM   0.2000 
 27 H3'      0.1231     5.7737    28.9122 H     1 SAM   0.0800 
 28 O3'     -0.8630     7.2160    28.0050 O.3   1 SAM  -0.6800 
 29 H3'     -1.0848     7.5968    28.8579 H     1 SAM   0.4000 
 30 C2'     -2.0110     5.1660    28.6050 C.3   1 SAM   0.2000 
 31 H2'     -2.3823     5.4411    29.5922 H     1 SAM   0.0800 
 32 O2'     -3.0380     5.5060    27.6950 O.3   1 SAM  -0.6800 
 33 H2'     -3.1926     6.4504    27.7714 H     1 SAM   0.4000 
 34 C1'     -1.6210     3.7060    28.4120 C.3   1 SAM   0.5691 
 35 H1'     -2.5259     3.1033    28.3344 H     1 SAM   0.0800 
 36 OXT     -1.3650     2.4570    22.2680 O.co2 1 SAM  -0.9000 
 37 N1      -1.7290     2.0910    33.3740 N.2   1 SAM  -0.6610 
 38 C2      -2.6580     2.6750    32.6050 C.2   1 SAM   0.6010 
 39 H2      -3.6164     2.8344    33.0766 H     1 SAM   0.0600 
 40 N3      -2.5670     3.0880    31.3380 N.2   1 SAM  -0.6610 
 41 C4      -1.3530     2.8310    30.8180 C.2   1 SAM   0.5000 
 42 C5      -0.3010     2.2370    31.4910 C.2   1 SAM   0.4500 
 43 C6      -0.5050     1.8530    32.8340 C.2   1 SAM   0.6110 
 44 N6       0.4320     1.2740    33.5860 N.2   1 SAM  -0.2000 
 45 H62      0.2272     1.0212    34.5422 H     1 SAM   0.4000 
 46 H61      1.3464     1.0883    33.1993 H     1 SAM   0.4000 
 47 N7       0.7980     2.1340    30.6540 N.2   1 SAM  -0.6960 
 48 C8       0.4020     2.6490    29.5160 C.3   1 SAM   0.4551 
 49 H81      0.4823     1.8831    28.7446 H     1 SAM   0.0800 
 50 H82      1.0577     3.4839    29.2687 H     1 SAM   0.0800 
 51 N9      -0.8920     3.1060    29.5410 N.pl3 1 SAM  -0.7882 
@<TRIPOS>BOND
  1   1   2  1   
  2   1   3  1   
  3   1   4  1   
  4   1   5  1   
  5   5   6  1   
  6   5   7  1   
  7   5   9  1   
  8   7   8  ar  
  9   7  36  ar  
 10   9  10  1   
 11   9  11  1   
 12   9  12  1   
 13  12  13  1   
 14  12  14  1   
 15  12  15  1   
 16  15  16  1   
 17  15  20  1   
 18  16  17  1   
 19  16  18  1   
 20  16  19  1   
 21  20  21  1   
 22  20  22  1   
 23  20  23  1   
 24  23  24  1   
 25  23  25  1   
 26  23  26  1   
 27  25  34  1   
 28  26  27  1   
 29  26  28  1   
 30  26  30  1   
 31  28  29  1   
 32  30  31  1   
 33  30  32  1   
 34  30  34  1   
 35  32  33  1   
 36  34  35  1   
 37  34  51  1   
 38  37  38  2   
 39  37  43  1   
 40  38  39  1   
 41  38  40  1   
 42  40  41  2   
 43  41  42  1   
 44  41  51  1   
 45  42  43  1   
 46  42  47  2   
 47  43  44  2   
 48  44  45  1   
 49  44  46  1   
 50  47  48  1   
 51  48  49  1   
 52  48  50  1   
 53  48  51  1   
@<TRIPOS>SUBSTRUCTURE
  1 SAM  25 GROUP 4 A **** 0

# MOE 2022.02 (io_trps.svl 2020.11)
