# created with PyMOL 2.4.0
@<TRIPOS>MOLECULE
temp
50 52 1                 
SMALL
USER_CHARGES
@<TRIPOS>ATOM
1	   N	42.875	-0.065	-10.962	N.4	1	SAM1	0.000	
2	  CA	42.517	0.975	-9.958	C.3	1	SAM1	0.000	
3	   C	43.280	0.678	-8.673	C.2	1	SAM1	0.000	
4	   O	44.170	-0.161	-8.743	O.co2	1	SAM1	0.000	
5	  CB	41.003	0.997	-9.677	C.3	1	SAM1	0.000	
6	  CG	40.226	1.972	-10.574	C.3	1	SAM1	0.000	
7	  SD	40.433	3.697	-9.973	S.3	1	SAM1	0.000	
8	  CE	38.726	4.197	-9.907	C.3	1	SAM1	0.000	
9	 C5'	40.861	4.509	-11.538	C.3	1	SAM1	0.000	
10	 C4'	42.329	4.375	-11.915	C.3	1	SAM1	0.000	
11	 O4'	42.608	3.020	-12.351	O.3	1	SAM1	0.000	
12	 C3'	42.755	5.251	-13.087	C.3	1	SAM1	0.000	
13	 O3'	43.016	6.584	-12.644	O.3	1	SAM1	0.000	
14	 C2'	43.974	4.468	-13.568	C.3	1	SAM1	0.000	
15	 O2'	44.997	4.545	-12.602	O.3	1	SAM1	0.000	
16	 C1'	43.424	3.048	-13.512	C.3	1	SAM1	0.000	
17	 OXT	42.944	1.299	-7.654	O.co2	1	SAM1	0.000	
18	  N1	43.399	1.844	-18.570	N.2	1	SAM1	0.000	
19	  C2	44.390	2.187	-17.734	C.2	1	SAM1	0.000	
20	  N3	44.342	2.478	-16.433	N.2	1	SAM1	0.000	
21	  C4	43.085	2.401	-15.968	C.2	1	SAM1	0.000	
22	  C5	41.964	2.068	-16.711	C.2	1	SAM1	0.000	
23	  C6	42.137	1.776	-18.080	C.2	1	SAM1	0.000	
24	  N6	41.144	1.437	-18.908	N.pl3	1	SAM1	0.000	
25	  N7	40.835	2.106	-15.905	N.2	1	SAM1	0.000	
26	  C8	41.282	2.456	-14.722	C.2	1	SAM1	0.000	
27	  N9	42.640	2.650	-14.685	N.2	1	SAM1	0.000	
28	  HA	42.787	1.956	-10.350	 H	1	SAM1	0.000	
29	 HB1	40.849	1.288	-8.638	 H	1	SAM1	0.000	
30	 HB2	40.608	-0.007	-9.836	 H	1	SAM1	0.000	
31	 HG1	39.168	1.710	-10.557	 H	1	SAM1	0.000	
32	 HG2	40.602	1.899	-11.594	 H	1	SAM1	0.000	
33	 HE1	38.265	3.796	-9.004	 H	1	SAM1	0.000	
34	 HE2	38.201	3.816	-10.783	 H	1	SAM1	0.000	
35	 HE3	38.666	5.285	-9.893	 H	1	SAM1	0.000	
36	  H1	42.628	-0.977	-10.605	 H	1	SAM1	0.000	
37	  H2	43.868	-0.032	-11.142	 H	1	SAM1	0.000	
38	  H2	45.372	2.235	-18.180	 H	1	SAM1	0.000	
39	  H3	42.372	0.108	-11.820	 H	1	SAM1	0.000	
40	  H8	40.643	2.580	-13.860	 H	1	SAM1	0.000	
41	 H1'	44.252	2.339	-13.491	 H	1	SAM1	0.000	
42	 H2'	44.374	4.804	-14.525	 H	1	SAM1	0.000	
43	 H2'	45.280	5.461	-12.551	 H	1	SAM1	0.000	
44	 H3'	42.026	5.412	-13.881	 H	1	SAM1	0.000	
45	 H3'	43.362	7.076	-13.392	 H	1	SAM1	0.000	
46	 H4'	42.868	4.672	-11.016	 H	1	SAM1	0.000	
47	 H61	40.197	1.377	-18.563	 H	1	SAM1	0.000	
48	 H62	41.341	1.241	-19.879	 H	1	SAM1	0.000	
49	H5'1	40.623	5.569	-11.452	 H	1	SAM1	0.000	
50	H5'2	40.260	4.065	-12.332	 H	1	SAM1	0.000	
@<TRIPOS>BOND
1 1 2 1
2 1 36 1
3 1 37 1
4 1 39 1
5 2 3 1
6 2 5 1
7 2 28 1
8 3 4 ar
9 3 17 ar
10 5 6 1
11 5 29 1
12 5 30 1
13 6 7 1
14 6 31 1
15 6 32 1
16 7 8 1
17 7 9 1
18 8 33 1
19 8 34 1
20 8 35 1
21 9 10 1
22 9 49 1
23 9 50 1
24 10 11 1
25 10 12 1
26 10 46 1
27 11 16 1
28 12 13 1
29 12 14 1
30 12 44 1
31 13 45 1
32 14 15 1
33 14 16 1
34 14 42 1
35 15 43 1
36 16 27 1
37 16 41 1
38 18 19 ar
39 18 23 ar
40 19 20 ar
41 19 38 1
42 20 21 ar
43 21 22 ar
44 21 27 ar
45 22 23 ar
46 22 25 ar
47 23 24 1
48 24 47 1
49 24 48 1
50 25 26 ar
51 26 27 ar
52 26 40 1
@<TRIPOS>SUBSTRUCTURE
1	SAM1	1	GROUP	1 B	SAM
