# created with PyMOL 2.5.0
@<TRIPOS>MOLECULE
1H1D
31 33 1                 
SMALL
USER_CHARGES
@<TRIPOS>ATOM
1	  N2	-32.131	57.656	52.804	N.pl3	1	BIA335	0.000	
2	  C3	-25.780	61.510	51.018	C.2	1	BIA335	0.000	
3	  C4	-34.188	57.824	51.329	C.2	1	BIA335	0.000	
4	  O5	-22.739	62.155	48.990	O.3	1	BIA335	0.000	
5	  C6	-26.798	59.482	52.030	C.2	1	BIA335	0.000	
6	  C7	-24.705	62.217	50.216	C.2	1	BIA335	0.000	
7	  O8	-27.551	60.198	52.686	O.2	1	BIA335	0.000	
8	  O9	-24.779	63.551	50.046	O.3	1	BIA335	0.000	
9	 C10	-35.575	57.648	51.183	C.2	1	BIA335	0.000	
10	 C11	-25.726	60.116	51.215	C.2	1	BIA335	0.000	
11	 C12	-30.140	56.835	53.969	C.3	1	BIA335	0.000	
12	 N14	-22.579	59.146	49.344	N.2	1	BIA335	0.000	
13	 C16	-29.944	58.319	51.997	C.3	1	BIA335	0.000	
14	 O17	-21.664	59.650	48.672	O.2	1	BIA335	0.000	
15	 O18	-22.615	57.954	49.554	O.2	1	BIA335	0.000	
16	 C19	-24.659	59.374	50.648	C.2	1	BIA335	0.000	
17	 C21	-31.339	57.978	51.587	C.3	1	BIA335	0.000	
18	 C22	-26.946	57.963	52.060	C.3	1	BIA335	0.000	
19	 N23	-29.290	57.189	52.791	N.3	1	BIA335	0.000	
20	 C24	-35.717	56.841	53.471	C.2	1	BIA335	0.000	
21	 C25	-31.519	56.495	53.513	C.3	1	BIA335	0.000	
22	 C26	-34.352	57.013	53.624	C.2	1	BIA335	0.000	
23	 C27	-27.890	57.576	53.191	C.3	1	BIA335	0.000	
24	 C28	-23.650	60.023	49.896	C.2	1	BIA335	0.000	
25	 C31	-33.529	57.503	52.580	C.2	1	BIA335	0.000	
26	 C32	-23.652	61.449	49.674	C.2	1	BIA335	0.000	
27	 C33	-36.484	56.307	54.660	C.3	1	BIA335	0.000	
28	 C37	-36.366	57.153	52.247	C.2	1	BIA335	0.000	
29	 F37	-37.367	55.409	54.172	 F	1	BIA335	0.000	
30	 F38	-35.748	55.647	55.477	 F	1	BIA335	0.000	
31	 F39	-37.127	57.250	55.166	 F	1	BIA335	0.000	
@<TRIPOS>BOND
1 1 17 1
2 1 21 1
3 1 25 1
4 2 6 ar
5 2 10 ar
6 3 9 ar
7 3 25 ar
8 4 26 1
9 5 7 2
10 5 10 1
11 5 18 1
12 6 8 1
13 6 26 ar
14 9 28 ar
15 10 16 ar
16 11 19 1
17 11 21 1
18 12 14 ar
19 12 15 ar
20 12 24 1
21 13 17 1
22 13 19 1
23 16 24 ar
24 18 23 1
25 19 23 1
26 20 22 ar
27 20 27 1
28 20 28 ar
29 22 25 ar
30 24 26 ar
31 27 29 1
32 27 30 1
33 27 31 1
@<TRIPOS>SUBSTRUCTURE
1	BIA335	1	GROUP	1 A	BIA
