@<TRIPOS>MOLECULE
1H1D.A
51 53 1 0 0 
SMALL
USER_CHARGES


@<TRIPOS>ATOM
  1 N2     -32.1310    57.6560    52.8040 N.pl3 1 BIA  -0.8382 
  2 C3     -25.7800    61.5100    51.0180 C.ar  1 BIA  -0.1500 
  3 H3     -26.5938    62.0796    51.4418 H     1 BIA   0.1500 
  4 C4     -34.1880    57.8240    51.3290 C.ar  1 BIA  -0.1500 
  5 H4     -33.6072    58.2023    50.5007 H     1 BIA   0.1500 
  6 O5     -22.7390    62.1550    48.9900 O.3   1 BIA  -0.8290 
  7 C6     -26.7980    59.4820    52.0300 C.2   1 BIA   0.4228 
  8 C7     -24.7050    62.2170    50.2160 C.ar  1 BIA   0.0825 
  9 O8     -27.5510    60.1980    52.6860 O.2   1 BIA  -0.5700 
 10 O9     -24.7790    63.5510    50.0460 O.3   1 BIA  -0.5325 
 11 H9     -24.0651    63.9347    49.5315 H     1 BIA   0.4500 
 12 C10    -35.5750    57.6480    51.1830 C.ar  1 BIA  -0.1500 
 13 H10    -36.0451    57.8948    50.2425 H     1 BIA   0.1500 
 14 C11    -25.7260    60.1160    51.2150 C.ar  1 BIA   0.0862 
 15 C12    -30.1400    56.8350    53.9690 C.3   1 BIA   0.3430 
 16 H121   -30.1835    57.6835    54.6519 H     1 BIA   0.0800 
 17 H122   -29.7069    55.9769    54.4829 H     1 BIA   0.0800 
 18 N14    -22.5790    59.1460    49.3440 N.pl3 1 BIA   0.9070 
 19 C16    -29.9440    58.3190    51.9970 C.3   1 BIA   0.3430 
 20 H161   -29.9681    59.2161    52.6157 H     1 BIA   0.0800 
 21 H162   -29.3508    58.5102    51.1027 H     1 BIA   0.0800 
 22 O17    -21.6640    59.6500    48.6720 O.2   1 BIA  -0.5200 
 23 O18    -22.6150    57.9540    49.5540 O.2   1 BIA  -0.5200 
 24 C19    -24.6590    59.3740    50.6480 C.ar  1 BIA  -0.1500 
 25 H19    -24.6155    58.3044    50.7910 H     1 BIA   0.1500 
 26 C21    -31.3390    57.9780    51.5870 C.3   1 BIA   0.2091 
 27 H211   -31.7876    58.8276    51.0721 H     1 BIA   0.0800 
 28 H212   -31.3245    57.1156    50.9205 H     1 BIA   0.0800 
 29 C22    -26.9460    57.9630    52.0600 C.3   1 BIA  -0.0990 
 30 H221   -25.9710    57.5046    52.2254 H     1 BIA   0.0800 
 31 H222   -27.3536    57.6172    51.1100 H     1 BIA   0.0800 
 32 N23    -29.2900    57.1890    52.7910 N.4   1 BIA  -0.9590 
 33 H23    -29.2171    56.3648    52.2118 H     1 BIA   0.4500 
 34 C24    -35.7170    56.8410    53.4710 C.ar  1 BIA  -0.1435 
 35 C25    -31.5190    56.4950    53.5130 C.3   1 BIA   0.2091 
 36 H251   -31.4736    55.6428    52.8349 H     1 BIA   0.0800 
 37 H252   -32.1308    56.2388    54.3780 H     1 BIA   0.0800 
 38 C26    -34.3520    57.0130    53.6240 C.ar  1 BIA  -0.1500 
 39 H26    -33.8985    56.7650    54.5723 H     1 BIA   0.1500 
 40 C27    -27.8900    57.5760    53.1910 C.3   1 BIA   0.3430 
 41 H271   -27.9617    58.4265    53.8690 H     1 BIA   0.0800 
 42 H272   -27.4488    56.7289    53.7162 H     1 BIA   0.0800 
 43 C28    -23.6500    60.0230    49.8960 C.ar  1 BIA   0.1330 
 44 C31    -33.5290    57.5030    52.5800 C.ar  1 BIA   0.1000 
 45 C32    -23.6520    61.4490    49.6740 C.ar  1 BIA  -0.1710 
 46 C33    -36.4840    56.3070    54.6600 C.3   1 BIA   1.1635 
 47 C37    -36.3660    57.1530    52.2470 C.ar  1 BIA  -0.1500 
 48 H37    -37.4311    57.0166    52.1316 H     1 BIA   0.1500 
 49 F37    -37.3670    55.4090    54.1720 F     1 BIA  -0.3400 
 50 F38    -35.7480    55.6470    55.4770 F     1 BIA  -0.3400 
 51 F39    -37.1270    57.2500    55.1660 F     1 BIA  -0.3400 
@<TRIPOS>BOND
  1   1  26  1   
  2   1  35  1   
  3   1  44  1   
  4   2   3  1   
  5   2   8  ar  
  6   2  14  ar  
  7   4   5  1   
  8   4  12  ar  
  9   4  44  ar  
 10   6  45  1   
 11   7   9  2   
 12   7  14  1   
 13   7  29  1   
 14   8  10  1   
 15   8  45  ar  
 16  10  11  1   
 17  12  13  1   
 18  12  47  ar  
 19  14  24  ar  
 20  15  16  1   
 21  15  17  1   
 22  15  32  1   
 23  15  35  1   
 24  18  22  2   
 25  18  23  2   
 26  18  43  1   
 27  19  20  1   
 28  19  21  1   
 29  19  26  1   
 30  19  32  1   
 31  24  25  1   
 32  24  43  ar  
 33  26  27  1   
 34  26  28  1   
 35  29  30  1   
 36  29  31  1   
 37  29  40  1   
 38  32  33  1   
 39  32  40  1   
 40  34  38  ar  
 41  34  46  1   
 42  34  47  ar  
 43  35  36  1   
 44  35  37  1   
 45  38  39  1   
 46  38  44  ar  
 47  40  41  1   
 48  40  42  1   
 49  43  45  ar  
 50  46  49  1   
 51  46  50  1   
 52  46  51  1   
 53  47  48  1   
@<TRIPOS>SUBSTRUCTURE
  1 BIA  19 GROUP 4 A **** 0

# MOE 2022.02 (io_trps.svl 2020.11)
