# created with PyMOL 2.5.2
@<TRIPOS>MOLECULE
for_leap
51 53 1                 
SMALL
USER_CHARGES
@<TRIPOS>ATOM
1	  N2	-32.131	57.656	52.804	N.pl3	1	BIA1	0.000	
2	  C3	-25.780	61.510	51.018	C.2	1	BIA1	0.000	
3	  C4	-34.188	57.824	51.329	C.2	1	BIA1	0.000	
4	  O5	-22.739	62.155	48.990	O.2	1	BIA1	0.000	
5	  C6	-26.798	59.482	52.030	C.2	1	BIA1	0.000	
6	  C7	-24.705	62.217	50.216	C.2	1	BIA1	0.000	
7	  O8	-27.551	60.198	52.686	O.2	1	BIA1	0.000	
8	  O9	-24.779	63.551	50.046	O.3	1	BIA1	0.000	
9	 C10	-35.575	57.648	51.183	C.2	1	BIA1	0.000	
10	 C11	-25.726	60.116	51.215	C.2	1	BIA1	0.000	
11	 C12	-30.140	56.835	53.969	C.3	1	BIA1	0.000	
12	 N14	-22.579	59.146	49.344	N.pl3	1	BIA1	0.000	
13	 C16	-29.944	58.319	51.997	C.3	1	BIA1	0.000	
14	 O17	-21.664	59.650	48.672	O.2	1	BIA1	0.000	
15	 O18	-22.615	57.954	49.554	O.2	1	BIA1	0.000	
16	 C19	-24.659	59.374	50.648	C.2	1	BIA1	0.000	
17	 C21	-31.339	57.978	51.587	C.3	1	BIA1	0.000	
18	 C22	-26.946	57.963	52.060	C.3	1	BIA1	0.000	
19	 N23	-29.290	57.189	52.791	N.4	1	BIA1	0.000	
20	 C24	-35.717	56.841	53.471	C.2	1	BIA1	0.000	
21	 C25	-31.519	56.495	53.513	C.3	1	BIA1	0.000	
22	 C26	-34.352	57.013	53.624	C.2	1	BIA1	0.000	
23	 C27	-27.890	57.576	53.191	C.3	1	BIA1	0.000	
24	 C28	-23.650	60.023	49.896	C.2	1	BIA1	0.000	
25	 C31	-33.529	57.503	52.580	C.2	1	BIA1	0.000	
26	 C32	-23.652	61.449	49.674	C.2	1	BIA1	0.000	
27	 C33	-36.484	56.307	54.660	C.3	1	BIA1	0.000	
28	 C37	-36.366	57.153	52.247	C.2	1	BIA1	0.000	
29	 F37	-37.367	55.409	54.172	 F	1	BIA1	0.000	
30	 F38	-35.748	55.647	55.477	 F	1	BIA1	0.000	
31	 F39	-37.127	57.250	55.166	 F	1	BIA1	0.000	
32	 H01	-24.905	63.749	49.115	 H	1	BIA1	0.000	
33	  H3	-26.594	62.080	51.442	 H	1	BIA1	0.000	
34	  H4	-33.607	58.202	50.501	 H	1	BIA1	0.000	
35	 H10	-36.045	57.895	50.243	 H	1	BIA1	0.000	
36	 H19	-24.615	58.304	50.791	 H	1	BIA1	0.000	
37	 H23	-29.217	56.365	52.212	 H	1	BIA1	0.000	
38	 H26	-33.898	56.765	54.572	 H	1	BIA1	0.000	
39	 H37	-37.431	57.017	52.132	 H	1	BIA1	0.000	
40	H121	-30.184	57.683	54.652	 H	1	BIA1	0.000	
41	H122	-29.707	55.977	54.483	 H	1	BIA1	0.000	
42	H161	-29.968	59.216	52.616	 H	1	BIA1	0.000	
43	H162	-29.351	58.510	51.103	 H	1	BIA1	0.000	
44	H211	-31.788	58.828	51.072	 H	1	BIA1	0.000	
45	H212	-31.324	57.116	50.921	 H	1	BIA1	0.000	
46	H221	-25.971	57.505	52.225	 H	1	BIA1	0.000	
47	H222	-27.354	57.617	51.110	 H	1	BIA1	0.000	
48	H251	-31.474	55.643	52.835	 H	1	BIA1	0.000	
49	H252	-32.131	56.239	54.378	 H	1	BIA1	0.000	
50	H271	-27.962	58.426	53.869	 H	1	BIA1	0.000	
51	H272	-27.449	56.729	53.716	 H	1	BIA1	0.000	
@<TRIPOS>BOND
1 1 17 1
2 1 21 1
3 1 25 1
4 2 6 ar
5 2 10 ar
6 2 33 1
7 3 9 ar
8 3 25 ar
9 3 34 1
10 4 26 1
11 5 7 2
12 5 10 1
13 5 18 1
14 6 26 ar
15 6 8 1
16 8 32 1
17 9 28 ar
18 9 35 1
19 10 16 ar
20 11 19 1
21 11 21 1
22 11 40 1
23 11 41 1
24 12 14 ar
25 12 15 ar
26 12 24 1
27 13 17 1
28 13 19 1
29 13 42 1
30 13 43 1
31 16 24 ar
32 16 36 1
33 17 44 1
34 17 45 1
35 18 23 1
36 18 46 1
37 18 47 1
38 19 23 1
39 19 37 1
40 20 22 ar
41 20 27 1
42 20 28 ar
43 21 48 1
44 21 49 1
45 22 25 ar
46 22 38 1
47 23 50 1
48 23 51 1
49 24 26 ar
50 27 29 1
51 27 30 1
52 27 31 1
53 28 39 1
@<TRIPOS>SUBSTRUCTURE
1	BIA1	1	GROUP	1 A	BIA
