# created with PyMOL 2.4.0
@<TRIPOS>MOLECULE
temp
50 52 1                 
SMALL
USER_CHARGES
@<TRIPOS>ATOM
1	   N	-21.361	65.641	44.167	N.4	1	SAM1	0.000	
2	  CA	-22.446	65.186	43.259	C.3	1	SAM1	0.000	
3	   C	-23.635	66.118	43.392	C.2	1	SAM1	0.000	
4	   O	-23.569	67.038	44.209	O.co2	1	SAM1	0.000	
5	  CB	-22.891	63.792	43.701	C.3	1	SAM1	0.000	
6	  CG	-21.748	62.881	44.028	C.3	1	SAM1	0.000	
7	  SD	-22.217	61.217	44.612	S.3	1	SAM1	0.000	
8	  CE	-22.808	61.663	46.224	C.3	1	SAM1	0.000	
9	 C5'	-20.628	60.534	44.893	C.3	1	SAM1	0.000	
10	 C4'	-19.930	60.018	43.667	C.3	1	SAM1	0.000	
11	 O4'	-18.637	59.608	44.152	O.3	1	SAM1	0.000	
12	 C3'	-20.503	58.681	43.148	C.3	1	SAM1	0.000	
13	 O3'	-21.174	58.993	41.886	O.3	1	SAM1	0.000	
14	 C2'	-19.284	57.794	42.877	C.3	1	SAM1	0.000	
15	 O2'	-19.184	57.011	41.692	O.3	1	SAM1	0.000	
16	 C1'	-18.110	58.797	43.194	C.3	1	SAM1	0.000	
17	 OXT	-24.629	65.857	42.632	O.co2	1	SAM1	0.000	
18	  N1	-13.074	58.379	42.740	N.2	1	SAM1	0.000	
19	  C2	-13.977	58.823	41.829	C.2	1	SAM1	0.000	
20	  N3	-15.328	58.710	41.878	N.2	1	SAM1	0.000	
21	  C4	-15.767	58.062	43.015	C.2	1	SAM1	0.000	
22	  C5	-14.961	57.563	44.028	C.2	1	SAM1	0.000	
23	  C6	-13.546	57.736	43.864	C.2	1	SAM1	0.000	
24	  N6	-12.651	57.290	44.770	N.pl3	1	SAM1	0.000	
25	  N7	-15.719	56.980	45.018	N.2	1	SAM1	0.000	
26	  C8	-16.945	57.129	44.598	C.2	1	SAM1	0.000	
27	  N9	-17.094	57.768	43.374	N.pl3	1	SAM1	0.000	
28	  HA	-22.087	65.177	42.230	 H	1	SAM1	0.000	
29	 HB1	-23.472	63.343	42.896	 H	1	SAM1	0.000	
30	 HB2	-23.517	63.894	44.588	 H	1	SAM1	0.000	
31	 HG1	-21.152	63.355	44.807	 H	1	SAM1	0.000	
32	 HG2	-21.143	62.764	43.129	 H	1	SAM1	0.000	
33	 HE1	-23.803	62.101	46.138	 H	1	SAM1	0.000	
34	 HE2	-22.129	62.389	46.672	 H	1	SAM1	0.000	
35	 HE3	-22.855	60.774	46.853	 H	1	SAM1	0.000	
36	  H1	-21.699	65.648	45.119	 H	1	SAM1	0.000	
37	  H2	-21.072	66.573	43.906	 H	1	SAM1	0.000	
38	  H2	-13.572	59.326	40.963	 H	1	SAM1	0.000	
39	  H3	-20.574	65.012	44.093	 H	1	SAM1	0.000	
40	  H8	-17.792	56.777	45.167	 H	1	SAM1	0.000	
41	 H1'	-17.666	59.560	42.554	 H	1	SAM1	0.000	
42	 H2'	-19.310	56.894	43.491	 H	1	SAM1	0.000	
43	 H2'	-19.143	57.615	40.947	 H	1	SAM1	0.000	
44	 H3'	-21.194	58.193	43.835	 H	1	SAM1	0.000	
45	 H3'	-21.482	58.166	41.509	 H	1	SAM1	0.000	
46	 H4'	-19.989	60.783	42.893	 H	1	SAM1	0.000	
47	 H61	-12.969	56.814	45.602	 H	1	SAM1	0.000	
48	 H62	-11.663	57.432	44.616	 H	1	SAM1	0.000	
49	H5'1	-20.736	59.706	45.594	 H	1	SAM1	0.000	
50	H5'2	-20.002	61.307	45.338	 H	1	SAM1	0.000	
@<TRIPOS>BOND
1 1 2 1
2 1 36 1
3 1 37 1
4 1 39 1
5 2 3 1
6 2 5 1
7 2 28 1
8 3 4 ar
9 3 17 ar
10 5 6 1
11 5 29 1
12 5 30 1
13 6 7 1
14 6 31 1
15 6 32 1
16 7 8 1
17 7 9 1
18 8 33 1
19 8 34 1
20 8 35 1
21 9 10 1
22 9 49 1
23 9 50 1
24 10 11 1
25 10 12 1
26 10 46 1
27 11 16 1
28 12 13 1
29 12 14 1
30 12 44 1
31 13 45 1
32 14 15 1
33 14 16 1
34 14 42 1
35 15 43 1
36 16 27 1
37 16 41 1
38 18 19 ar
39 18 23 ar
40 19 20 ar
41 19 38 1
42 20 21 ar
43 21 22 ar
44 21 27 1
45 22 23 ar
46 22 25 1
47 23 24 1
48 24 47 1
49 24 48 1
50 25 26 2
51 26 27 1
52 26 40 1
@<TRIPOS>SUBSTRUCTURE
1	SAM1	1	GROUP	1 A	SAM
