# created with PyMOL 2.5.0
@<TRIPOS>MOLECULE
1H1D
27 29 1                 
SMALL
USER_CHARGES
@<TRIPOS>ATOM
1	   N	-21.361	65.641	44.167	N.3	1	SAM301	0.000	
2	  CA	-22.446	65.186	43.259	C.3	1	SAM301	0.000	
3	   C	-23.635	66.118	43.392	C.2	1	SAM301	0.000	
4	   O	-23.569	67.038	44.209	O.co2	1	SAM301	0.000	
5	  CB	-22.891	63.792	43.701	C.3	1	SAM301	0.000	
6	  CG	-21.748	62.881	44.028	C.3	1	SAM301	0.000	
7	  SD	-22.217	61.217	44.612	S.3	1	SAM301	0.000	
8	  CE	-22.808	61.663	46.224	C.3	1	SAM301	0.000	
9	 C5'	-20.628	60.534	44.893	C.3	1	SAM301	0.000	
10	 C4'	-19.930	60.018	43.667	C.3	1	SAM301	0.000	
11	 O4'	-18.637	59.608	44.152	O.3	1	SAM301	0.000	
12	 C3'	-20.503	58.681	43.148	C.3	1	SAM301	0.000	
13	 O3'	-21.174	58.993	41.886	O.3	1	SAM301	0.000	
14	 C2'	-19.284	57.794	42.877	C.3	1	SAM301	0.000	
15	 O2'	-19.184	57.011	41.692	O.3	1	SAM301	0.000	
16	 C1'	-18.110	58.797	43.194	C.3	1	SAM301	0.000	
17	 OXT	-24.629	65.857	42.632	O.co2	1	SAM301	0.000	
18	  N1	-13.074	58.379	42.740	N.2	1	SAM301	0.000	
19	  C2	-13.977	58.823	41.829	C.2	1	SAM301	0.000	
20	  N3	-15.328	58.710	41.878	N.2	1	SAM301	0.000	
21	  C4	-15.767	58.062	43.015	C.2	1	SAM301	0.000	
22	  C5	-14.961	57.563	44.028	C.2	1	SAM301	0.000	
23	  C6	-13.546	57.736	43.864	C.2	1	SAM301	0.000	
24	  N6	-12.651	57.290	44.770	N.pl3	1	SAM301	0.000	
25	  N7	-15.719	56.980	45.018	N.pl3	1	SAM301	0.000	
26	  C8	-16.945	57.129	44.598	C.3	1	SAM301	0.000	
27	  N9	-17.094	57.768	43.374	N.pl3	1	SAM301	0.000	
@<TRIPOS>BOND
1 1 2 1
2 2 3 1
3 2 5 1
4 3 4 ar
5 3 17 ar
6 5 6 1
7 6 7 1
8 7 8 1
9 7 9 1
10 9 10 1
11 10 11 1
12 10 12 1
13 11 16 1
14 12 13 1
15 12 14 1
16 14 15 1
17 14 16 1
18 16 27 1
19 18 19 ar
20 18 23 ar
21 19 20 ar
22 20 21 ar
23 21 22 ar
24 21 27 1
25 22 23 ar
26 22 25 1
27 23 24 1
28 25 26 1
29 26 27 1
@<TRIPOS>SUBSTRUCTURE
1	SAM301	1	GROUP	1 A	SAM
