@<TRIPOS>MOLECULE
1H1D.A
52 54 1 0 0 
SMALL
USER_CHARGES


@<TRIPOS>ATOM
  1 N      -21.3610    65.6410    44.1670 N.4   1 SAM  -0.8530 
  2 H1     -21.6991    65.6476    45.1187 H     1 SAM   0.4500 
  3 H2     -21.0721    66.5729    43.9058 H     1 SAM   0.4500 
  4 H3     -20.5744    65.0117    44.0935 H     1 SAM   0.4500 
  5 CA     -22.4460    65.1860    43.2590 C.3   1 SAM   0.3170 
  6 HA     -22.0866    65.1769    42.2300 H     1 SAM   0.0800 
  7 C      -23.6350    66.1180    43.3920 C.2   1 SAM   0.9060 
  8 O      -23.5690    67.0380    44.2090 O.co2 1 SAM  -0.9000 
  9 CB     -22.8910    63.7920    43.7010 C.3   1 SAM  -0.1600 
 10 HB1    -23.4720    63.3427    42.8956 H     1 SAM   0.0800 
 11 HB2    -23.5170    63.8936    44.5875 H     1 SAM   0.0800 
 12 CG     -21.7480    62.8810    44.0280 C.3   1 SAM  -0.1525 
 13 HG1    -21.1519    63.3555    44.8075 H     1 SAM   0.0800 
 14 HG2    -21.1432    62.7639    43.1288 H     1 SAM   0.0800 
 15 SD     -22.2170    61.2170    44.6120 S.3   1 SAM   0.9775 
 16 CE     -22.8080    61.6630    46.2240 C.3   1 SAM  -0.2325 
 17 HE1    -23.8026    62.1006    46.1381 H     1 SAM   0.0800 
 18 HE2    -22.1292    62.3888    46.6719 H     1 SAM   0.0800 
 19 HE3    -22.8553    60.7737    46.8525 H     1 SAM   0.0800 
 20 C5'    -20.6280    60.5340    44.8930 C.3   1 SAM  -0.1525 
 21 H5'1   -20.7355    59.7062    45.5939 H     1 SAM   0.0800 
 22 H5'2   -20.0018    61.3075    45.3376 H     1 SAM   0.0800 
 23 C4'    -19.9300    60.0180    43.6670 C.3   1 SAM   0.2000 
 24 H4'    -19.9887    60.7829    42.8927 H     1 SAM   0.0800 
 25 O4'    -18.6370    59.6080    44.1520 O.3   1 SAM  -0.5600 
 26 C3'    -20.5030    58.6810    43.1480 C.3   1 SAM   0.2000 
 27 H3'    -21.1944    58.1929    43.8349 H     1 SAM   0.0800 
 28 O3'    -21.1740    58.9930    41.8860 O.3   1 SAM  -0.6800 
 29 H3'    -21.4818    58.1657    41.5086 H     1 SAM   0.4000 
 30 C2'    -19.2840    57.7940    42.8770 C.3   1 SAM   0.2000 
 31 H2'    -19.3099    56.8940    43.4913 H     1 SAM   0.0800 
 32 O2'    -19.1840    57.0110    41.6920 O.3   1 SAM  -0.6800 
 33 H2'    -18.3837    56.4850    41.7583 H     1 SAM   0.4000 
 34 C1'    -18.1100    58.7970    43.1940 C.3   1 SAM   0.5691 
 35 H1'    -17.6660    59.5598    42.5544 H     1 SAM   0.0800 
 36 OXT    -24.6290    65.8570    42.6320 O.co2 1 SAM  -0.9000 
 37 N1     -13.0740    58.3790    42.7400 N.ar  1 SAM  -0.6200 
 38 C2     -13.9770    58.8230    41.8290 C.ar  1 SAM   0.4700 
 39 H2     -13.5722    59.3255    40.9630 H     1 SAM   0.1500 
 40 N3     -15.3280    58.7100    41.8780 N.ar  1 SAM  -0.6200 
 41 C4     -15.7670    58.0620    43.0150 C.ar  1 SAM   0.4100 
 42 C5     -14.9610    57.5630    44.0280 C.ar  1 SAM   0.1000 
 43 C6     -13.5460    57.7360    43.8640 C.ar  1 SAM   0.4100 
 44 N6     -12.6510    57.2900    44.7700 N.pl3 1 SAM  -0.9000 
 45 H61    -12.9691    56.8138    45.6019 H     1 SAM   0.4000 
 46 H62    -11.6630    57.4324    44.6162 H     1 SAM   0.4000 
 47 N7     -15.7190    56.9800    45.0180 N.pl3 1 SAM  -0.8691 
 48 H7     -15.4007    56.5401    45.8697 H     1 SAM   0.4000 
 49 C8     -16.9450    57.1290    44.5980 C.3   1 SAM   0.5782 
 50 H81    -17.4858    57.7093    45.3456 H     1 SAM   0.0800 
 51 H82    -17.3918    56.1384    44.5140 H     1 SAM   0.0800 
 52 N9     -17.0940    57.7680    43.3740 N.pl3 1 SAM  -0.8382 
@<TRIPOS>BOND
  1   1   2  1   
  2   1   3  1   
  3   1   4  1   
  4   1   5  1   
  5   5   6  1   
  6   5   7  1   
  7   5   9  1   
  8   7   8  ar  
  9   7  36  ar  
 10   9  10  1   
 11   9  11  1   
 12   9  12  1   
 13  12  13  1   
 14  12  14  1   
 15  12  15  1   
 16  15  16  1   
 17  15  20  1   
 18  16  17  1   
 19  16  18  1   
 20  16  19  1   
 21  20  21  1   
 22  20  22  1   
 23  20  23  1   
 24  23  24  1   
 25  23  25  1   
 26  23  26  1   
 27  25  34  1   
 28  26  27  1   
 29  26  28  1   
 30  26  30  1   
 31  28  29  1   
 32  30  31  1   
 33  30  32  1   
 34  30  34  1   
 35  32  33  1   
 36  34  35  1   
 37  34  52  1   
 38  37  38  ar  
 39  37  43  ar  
 40  38  39  1   
 41  38  40  ar  
 42  40  41  ar  
 43  41  42  ar  
 44  41  52  1   
 45  42  43  ar  
 46  42  47  1   
 47  43  44  1   
 48  44  45  1   
 49  44  46  1   
 50  47  48  1   
 51  47  49  1   
 52  49  50  1   
 53  49  51  1   
 54  49  52  1   
@<TRIPOS>SUBSTRUCTURE
  1 SAM  25 GROUP 4 A **** 0

# MOE 2022.02 (io_trps.svl 2020.11)
