# created with PyMOL 2.5.0
@<TRIPOS>MOLECULE
5TUZ
28 31 1                 
SMALL
USER_CHARGES
@<TRIPOS>ATOM
1	 CAB	-18.839	-17.657	1.194	C.3	1	7L63006	0.000	
2	 CAC	-19.829	-12.952	-1.499	C.3	1	7L63006	0.000	
3	 CAD	-24.894	-6.462	3.774	C.3	1	7L63006	0.000	
4	 CAE	-20.298	-15.672	2.446	C.2	1	7L63006	0.000	
5	 CAF	-20.675	-13.202	1.196	C.2	1	7L63006	0.000	
6	 CAJ	-22.807	-15.470	6.786	C.3	1	7L63006	0.000	
7	 CAL	-24.317	-10.025	2.840	C.3	1	7L63006	0.000	
8	 CAM	-22.116	-8.933	3.282	C.3	1	7L63006	0.000	
9	 CAN	-24.988	-8.831	3.515	C.3	1	7L63006	0.000	
10	 CAO	-22.887	-7.780	3.921	C.3	1	7L63006	0.000	
11	 CAW	-19.740	-15.424	1.194	C.2	1	7L63006	0.000	
12	 CAX	-19.932	-14.208	0.569	C.2	1	7L63006	0.000	
13	 NAR	-22.924	-14.177	6.133	N.pl3	1	7L63006	0.000	
14	 NAS	-22.230	-11.261	2.556	N.pl3	1	7L63006	0.000	
15	 OAT	-18.979	-16.379	0.572	O.3	1	7L63006	0.000	
16	 OAU	-19.354	-14.000	-0.658	O.3	1	7L63006	0.000	
17	 CBB	-22.896	-10.239	3.351	C.3	1	7L63006	0.000	
18	 NBC	-24.186	-7.635	3.248	N.3	1	7L63006	0.000	
19	  C1	-23.650	-13.086	6.768	C.3	1	7L63006	0.000	
20	  N1	-22.540	-12.752	4.299	N.2	1	7L63006	0.000	
21	  C2	-22.343	-13.951	4.885	C.2	1	7L63006	0.000	
22	  C3	-24.240	-15.887	7.090	C.3	1	7L63006	0.000	
23	  N3	-21.607	-14.908	4.279	N.2	1	7L63006	0.000	
24	  O3	-24.863	-14.864	7.867	O.3	1	7L63006	0.000	
25	  C4	-21.052	-14.676	3.070	C.2	1	7L63006	0.000	
26	  C5	-21.247	-13.447	2.444	C.2	1	7L63006	0.000	
27	  C6	-22.008	-12.476	3.095	C.2	1	7L63006	0.000	
28	  C8	-25.017	-13.666	7.105	C.3	1	7L63006	0.000	
@<TRIPOS>BOND
1 1 15 1
2 2 16 1
3 3 18 1
4 4 11 ar
5 4 25 ar
6 5 12 ar
7 5 26 ar
8 6 13 1
9 6 22 1
10 7 9 1
11 7 17 1
12 8 10 1
13 8 17 1
14 9 18 1
15 10 18 1
16 11 12 ar
17 11 15 1
18 12 16 1
19 13 19 1
20 13 21 1
21 14 17 1
22 14 27 1
23 19 28 1
24 20 21 ar
25 20 27 ar
26 21 23 ar
27 22 24 1
28 23 25 ar
29 24 28 1
30 25 26 ar
31 26 27 ar
@<TRIPOS>SUBSTRUCTURE
1	7L63006	1	GROUP	1 A	7L6
