@<TRIPOS>MOLECULE
5TUZ.A
59 62 1 0 0 
SMALL
USER_CHARGES


@<TRIPOS>ATOM
  1 CAB    -18.8390   -17.6570     1.1940 C.3   1 Q7L   0.0400 
  2 HAB1   -18.2079   -18.2950     0.5753 H     1 Q7L   0.0800 
  3 HAB2   -19.8212   -18.1162     1.3058 H     1 Q7L   0.0800 
  4 HAB3   -18.3811   -17.5351     2.1756 H     1 Q7L   0.0800 
  5 CAC    -19.8290   -12.9520    -1.4990 C.3   1 Q7L   0.0400 
  6 HAC1   -19.2536   -12.9399    -2.4247 H     1 Q7L   0.0800 
  7 HAC2   -19.7150   -11.9960    -0.9879 H     1 Q7L   0.0800 
  8 HAC3   -20.8817   -13.1185    -1.7277 H     1 Q7L   0.0800 
  9 CAD    -24.8940    -6.4620     3.7740 C.3   1 Q7L   0.2630 
 10 HAD1   -25.8554    -6.3618     3.2702 H     1 Q7L   0.0800 
 11 HAD2   -24.2964    -5.5676     3.5977 H     1 Q7L   0.0800 
 12 HAD3   -25.0561    -6.5854     4.8448 H     1 Q7L   0.0800 
 13 CAE    -20.2980   -15.6720     2.4460 C.ar  1 Q7L  -0.1500 
 14 HAE    -20.1488   -16.6260     2.9297 H     1 Q7L   0.1500 
 15 CAF    -20.6750   -13.2020     1.1960 C.ar  1 Q7L  -0.1500 
 16 HAF    -20.8046   -12.2427     0.7170 H     1 Q7L   0.1500 
 17 CAJ    -22.8070   -15.4700     6.7860 C.3   1 Q7L   0.2091 
 18 HAJ1   -22.2293   -15.3839     7.7063 H     1 Q7L   0.0800 
 19 HAJ2   -22.3298   -16.1923     6.1237 H     1 Q7L   0.0800 
 20 CAL    -24.3170   -10.0250     2.8400 C.3   1 Q7L  -0.1600 
 21 HAL1   -24.2827    -9.8492     1.7648 H     1 Q7L   0.0800 
 22 HAL2   -24.9037   -10.9209     3.0431 H     1 Q7L   0.0800 
 23 CAM    -22.1160    -8.9330     3.2820 C.3   1 Q7L  -0.1600 
 24 HAM1   -21.1692    -9.0589     3.8073 H     1 Q7L   0.0800 
 25 HAM2   -21.9223    -8.6920     2.2368 H     1 Q7L   0.0800 
 26 CAN    -24.9880    -8.8310     3.5150 C.3   1 Q7L   0.3430 
 27 HAN1   -25.0470    -9.0017     4.5899 H     1 Q7L   0.0800 
 28 HAN2   -25.9922    -8.6977     3.1126 H     1 Q7L   0.0800 
 29 CAO    -22.8870    -7.7800     3.9210 C.3   1 Q7L   0.3430 
 30 HAO1   -22.3166    -6.8572     3.8152 H     1 Q7L   0.0800 
 31 HAO2   -23.0459    -7.9897     4.9788 H     1 Q7L   0.0800 
 32 CAW    -19.7400   -15.4240     1.1940 C.ar  1 Q7L   0.0825 
 33 CAX    -19.9320   -14.2080     0.5690 C.ar  1 Q7L   0.0825 
 34 NAR    -22.9240   -14.1770     6.1330 N.pl3 1 Q7L  -0.8382 
 35 NAS    -22.2300   -11.2610     2.5560 N.pl3 1 Q7L  -0.8691 
 36 HAS    -21.9374   -11.0613     1.6102 H     1 Q7L   0.4000 
 37 OAT    -18.9790   -16.3790     0.5720 O.3   1 Q7L  -0.3625 
 38 OAU    -19.3540   -14.0000    -0.6580 O.3   1 Q7L  -0.3625 
 39 CBB    -22.8960   -10.2390     3.3510 C.3   1 Q7L   0.2891 
 40 HBB    -22.9385   -10.5706     4.3885 H     1 Q7L   0.0800 
 41 NBC    -24.1860    -7.6350     3.2480 N.4   1 Q7L  -0.9590 
 42 HBC    -24.0404    -7.5197     2.2552 H     1 Q7L   0.4500 
 43 C1     -23.6500   -13.0860     6.7680 C.3   1 Q7L   0.2091 
 44 H11    -23.7495   -12.2429     6.0844 H     1 Q7L   0.0800 
 45 H12    -23.1379   -12.7609     7.6736 H     1 Q7L   0.0800 
 46 N1     -22.5400   -12.7520     4.2990 N.ar  1 Q7L  -0.6200 
 47 C2     -22.3430   -13.9510     4.8850 C.ar  1 Q7L   0.7710 
 48 C3     -24.2400   -15.8870     7.0900 C.3   1 Q7L   0.1200 
 49 H31    -24.2382   -16.8222     7.6499 H     1 Q7L   0.0800 
 50 H32    -24.7875   -16.0230     6.1573 H     1 Q7L   0.0800 
 51 N3     -21.6070   -14.9080     4.2790 N.ar  1 Q7L  -0.1790 
 52 H3     -21.4713   -15.8005     4.7319 H     1 Q7L   0.4570 
 53 O3     -24.8630   -14.8640     7.8670 O.3   1 Q7L  -0.5600 
 54 C4     -21.0520   -14.6760     3.0700 C.ar  1 Q7L   0.3610 
 55 C5     -21.2470   -13.4470     2.4440 C.ar  1 Q7L   0.0000 
 56 C6     -22.0080   -12.4760     3.0950 C.ar  1 Q7L   0.4100 
 57 C8     -25.0170   -13.6660     7.1050 C.3   1 Q7L   0.1200 
 58 H81    -25.5515   -13.8910     6.1821 H     1 Q7L   0.0800 
 59 H82    -25.5848   -12.9390     7.6856 H     1 Q7L   0.0800 
@<TRIPOS>BOND
  1   1   2  1   
  2   1   3  1   
  3   1   4  1   
  4   1  37  1   
  5   5   6  1   
  6   5   7  1   
  7   5   8  1   
  8   5  38  1   
  9   9  10  1   
 10   9  11  1   
 11   9  12  1   
 12   9  41  1   
 13  13  14  1   
 14  13  32  ar  
 15  13  54  ar  
 16  15  16  1   
 17  15  33  ar  
 18  15  55  ar  
 19  17  18  1   
 20  17  19  1   
 21  17  34  1   
 22  17  48  1   
 23  20  21  1   
 24  20  22  1   
 25  20  26  1   
 26  20  39  1   
 27  23  24  1   
 28  23  25  1   
 29  23  29  1   
 30  23  39  1   
 31  26  27  1   
 32  26  28  1   
 33  26  41  1   
 34  29  30  1   
 35  29  31  1   
 36  29  41  1   
 37  32  33  ar  
 38  32  37  1   
 39  33  38  1   
 40  34  43  1   
 41  34  47  1   
 42  35  36  1   
 43  35  39  1   
 44  35  56  1   
 45  39  40  1   
 46  41  42  1   
 47  43  44  1   
 48  43  45  1   
 49  43  57  1   
 50  46  47  ar  
 51  46  56  ar  
 52  47  51  ar  
 53  48  49  1   
 54  48  50  1   
 55  48  53  1   
 56  51  52  1   
 57  51  54  ar  
 58  53  57  1   
 59  54  55  ar  
 60  55  56  ar  
 61  57  58  1   
 62  57  59  1   
@<TRIPOS>SUBSTRUCTURE
  1 Q7L  56 GROUP 4 A **** 0

# MOE 2022.02 (io_trps.svl 2020.11)
