@<TRIPOS>MOLECULE
5TUZ.B
59 62 1 0 0 
SMALL
USER_CHARGES


@<TRIPOS>ATOM
  1 CAB      4.3020   -19.0410    45.2170 C.3   1 Q7L   0.0400 
  2 HAB1     5.3349   -19.2144    44.9150 H     1 Q7L   0.0800 
  3 HAB2     4.2244   -18.0696    45.7054 H     1 Q7L   0.0800 
  4 HAB3     3.6585   -19.0578    44.3374 H     1 Q7L   0.0800 
  5 CAC      2.9210   -22.7290    49.1450 C.3   1 Q7L   0.0400 
  6 HAC1     3.7632   -23.3985    49.3198 H     1 Q7L   0.0800 
  7 HAC2     2.0215   -23.3168    48.9618 H     1 Q7L   0.0800 
  8 HAC3     2.7705   -22.0980    50.0209 H     1 Q7L   0.0800 
  9 CAD     -6.1300   -22.9270    51.6240 C.3   1 Q7L   0.2630 
 10 HAD1    -6.8864   -23.4045    51.0011 H     1 Q7L   0.0800 
 11 HAD2    -6.6161   -22.3906    52.4389 H     1 Q7L   0.0800 
 12 HAD3    -5.4651   -23.6868    52.0348 H     1 Q7L   0.0800 
 13 CAE      1.6810   -19.1000    46.2110 C.ar  1 Q7L  -0.1500 
 14 HAE      1.9571   -18.3665    45.4679 H     1 Q7L   0.1500 
 15 CAF      0.9770   -20.9970    48.1260 C.ar  1 Q7L  -0.1500 
 16 HAF      0.7007   -21.7380    48.8615 H     1 Q7L   0.1500 
 17 CAJ     -4.0170   -17.1930    47.1910 C.3   1 Q7L   0.2091 
 18 HAJ1    -3.8428   -16.9265    48.2335 H     1 Q7L   0.0800 
 19 HAJ2    -4.5328   -18.1520    47.1425 H     1 Q7L   0.0800 
 20 CAL     -3.8810   -21.8360    48.8270 C.3   1 Q7L  -0.1600 
 21 HAL1    -4.4198   -20.9584    48.4698 H     1 Q7L   0.0800 
 22 HAL2    -3.4794   -22.3869    47.9765 H     1 Q7L   0.0800 
 23 CAM     -3.3570   -20.4950    50.8260 C.3   1 Q7L  -0.1600 
 24 HAM1    -2.5664   -20.0948    51.4607 H     1 Q7L   0.0800 
 25 HAM2    -3.8870   -19.6734    50.3442 H     1 Q7L   0.0800 
 26 CAN     -4.7960   -22.7260    49.6600 C.3   1 Q7L   0.3430 
 27 HAN1    -4.2256   -23.5790    50.0276 H     1 Q7L   0.0800 
 28 HAN2    -5.6157   -23.0794    49.0345 H     1 Q7L   0.0800 
 29 CAO     -4.3270   -21.3360    51.6560 C.3   1 Q7L   0.3430 
 30 HAO1    -4.8228   -20.6903    52.3808 H     1 Q7L   0.0800 
 31 HAO2    -3.7644   -22.1075    52.1818 H     1 Q7L   0.0800 
 32 CAW      2.6180   -20.0480    46.6410 C.ar  1 Q7L   0.0825 
 33 CAX      2.2690   -20.9840    47.5980 C.ar  1 Q7L   0.0825 
 34 NAR     -2.7490   -17.2660    46.4710 N.pl3 1 Q7L  -0.8382 
 35 NAS     -1.5110   -21.0050    49.1580 N.pl3 1 Q7L  -0.8691 
 36 HAS     -0.6962   -21.5044    49.4849 H     1 Q7L   0.4000 
 37 OAT      3.8940   -20.0630    46.1240 O.3   1 Q7L  -0.3625 
 38 OAU      3.1930   -21.9090    48.0090 O.3   1 Q7L  -0.3625 
 39 CBB     -2.7680   -21.4310    49.7760 C.3   1 Q7L   0.2891 
 40 HBB     -2.4019   -22.3258    50.2794 H     1 Q7L   0.0800 
 41 NBC     -5.3520   -21.9830    50.8120 N.4   1 Q7L  -0.9590 
 42 HBC     -5.9233   -21.2347    50.4462 H     1 Q7L   0.4500 
 43 C1      -2.4620   -16.3240    45.4000 C.3   1 Q7L   0.2091 
 44 H11     -3.1017   -16.5082    44.5369 H     1 Q7L   0.0800 
 45 H12     -1.4167   -16.3847    45.0970 H     1 Q7L   0.0800 
 46 N1      -2.1440   -19.1330    47.8070 N.ar  1 Q7L  -0.6200 
 47 C2      -1.7990   -18.2200    46.8730 C.ar  1 Q7L   0.7710 
 48 C3      -4.8450   -16.1160    46.5050 C.3   1 Q7L   0.1200 
 49 H31     -5.7663   -15.9686    47.0685 H     1 Q7L   0.0800 
 50 H32     -5.0860   -16.4478    45.4951 H     1 Q7L   0.0800 
 51 N3      -0.5470   -18.2100    46.3450 N.ar  1 Q7L  -0.1790 
 52 H3      -0.3099   -17.5240    45.6426 H     1 Q7L   0.4570 
 53 O3      -4.1470   -14.8690    46.4270 O.3   1 Q7L  -0.5600 
 54 C4       0.3870   -19.1030    46.7440 C.ar  1 Q7L   0.3610 
 55 C5       0.0430   -20.0510    47.7020 C.ar  1 Q7L   0.0000 
 56 C6      -1.2490   -20.0600    48.2260 C.ar  1 Q7L   0.4100 
 57 C8      -2.7710   -14.9650    46.0300 C.3   1 Q7L   0.1200 
 58 H81     -2.5566   -14.1811    45.3036 H     1 Q7L   0.0800 
 59 H82     -2.1390   -14.8298    46.9077 H     1 Q7L   0.0800 
@<TRIPOS>BOND
  1   1   2  1   
  2   1   3  1   
  3   1   4  1   
  4   1  37  1   
  5   5   6  1   
  6   5   7  1   
  7   5   8  1   
  8   5  38  1   
  9   9  10  1   
 10   9  11  1   
 11   9  12  1   
 12   9  41  1   
 13  13  14  1   
 14  13  32  ar  
 15  13  54  ar  
 16  15  16  1   
 17  15  33  ar  
 18  15  55  ar  
 19  17  18  1   
 20  17  19  1   
 21  17  34  1   
 22  17  48  1   
 23  20  21  1   
 24  20  22  1   
 25  20  26  1   
 26  20  39  1   
 27  23  24  1   
 28  23  25  1   
 29  23  29  1   
 30  23  39  1   
 31  26  27  1   
 32  26  28  1   
 33  26  41  1   
 34  29  30  1   
 35  29  31  1   
 36  29  41  1   
 37  32  33  ar  
 38  32  37  1   
 39  33  38  1   
 40  34  43  1   
 41  34  47  1   
 42  35  36  1   
 43  35  39  1   
 44  35  56  1   
 45  39  40  1   
 46  41  42  1   
 47  43  44  1   
 48  43  45  1   
 49  43  57  1   
 50  46  47  ar  
 51  46  56  ar  
 52  47  51  ar  
 53  48  49  1   
 54  48  50  1   
 55  48  53  1   
 56  51  52  1   
 57  51  54  ar  
 58  53  57  1   
 59  54  55  ar  
 60  55  56  ar  
 61  57  58  1   
 62  57  59  1   
@<TRIPOS>SUBSTRUCTURE
  1 Q7L  56 GROUP 4 B **** 0

# MOE 2022.02 (io_trps.svl 2020.11)
