# created with PyMOL 2.5.0
@<TRIPOS>MOLECULE
5TUZ
28 31 1                 
SMALL
USER_CHARGES
@<TRIPOS>ATOM
1	 CAB	4.302	-19.041	45.217	C.3	1	7L63006	0.000	
2	 CAC	2.921	-22.729	49.145	C.3	1	7L63006	0.000	
3	 CAD	-6.130	-22.927	51.624	C.3	1	7L63006	0.000	
4	 CAE	1.681	-19.100	46.211	C.2	1	7L63006	0.000	
5	 CAF	0.977	-20.997	48.126	C.2	1	7L63006	0.000	
6	 CAJ	-4.017	-17.193	47.191	C.3	1	7L63006	0.000	
7	 CAL	-3.881	-21.836	48.827	C.3	1	7L63006	0.000	
8	 CAM	-3.357	-20.495	50.826	C.3	1	7L63006	0.000	
9	 CAN	-4.796	-22.726	49.660	C.3	1	7L63006	0.000	
10	 CAO	-4.327	-21.336	51.656	C.3	1	7L63006	0.000	
11	 CAW	2.618	-20.048	46.641	C.2	1	7L63006	0.000	
12	 CAX	2.269	-20.984	47.598	C.2	1	7L63006	0.000	
13	 NAR	-2.749	-17.266	46.471	N.pl3	1	7L63006	0.000	
14	 NAS	-1.511	-21.005	49.158	N.pl3	1	7L63006	0.000	
15	 OAT	3.894	-20.063	46.124	O.3	1	7L63006	0.000	
16	 OAU	3.193	-21.909	48.009	O.3	1	7L63006	0.000	
17	 CBB	-2.768	-21.431	49.776	C.3	1	7L63006	0.000	
18	 NBC	-5.352	-21.983	50.812	N.3	1	7L63006	0.000	
19	  C1	-2.462	-16.324	45.400	C.3	1	7L63006	0.000	
20	  N1	-2.144	-19.133	47.807	N.2	1	7L63006	0.000	
21	  C2	-1.799	-18.220	46.873	C.2	1	7L63006	0.000	
22	  C3	-4.845	-16.116	46.505	C.3	1	7L63006	0.000	
23	  N3	-0.547	-18.210	46.345	N.2	1	7L63006	0.000	
24	  O3	-4.147	-14.869	46.427	O.3	1	7L63006	0.000	
25	  C4	0.387	-19.103	46.744	C.2	1	7L63006	0.000	
26	  C5	0.043	-20.051	47.702	C.2	1	7L63006	0.000	
27	  C6	-1.249	-20.060	48.226	C.2	1	7L63006	0.000	
28	  C8	-2.771	-14.965	46.030	C.3	1	7L63006	0.000	
@<TRIPOS>BOND
1 1 15 1
2 2 16 1
3 3 18 1
4 4 11 ar
5 4 25 ar
6 5 12 ar
7 5 26 ar
8 6 13 1
9 6 22 1
10 7 9 1
11 7 17 1
12 8 10 1
13 8 17 1
14 9 18 1
15 10 18 1
16 11 12 ar
17 11 15 1
18 12 16 1
19 13 19 1
20 13 21 1
21 14 17 1
22 14 27 1
23 19 28 1
24 20 21 ar
25 20 27 ar
26 21 23 ar
27 22 24 1
28 23 25 ar
29 24 28 1
30 25 26 ar
31 26 27 ar
@<TRIPOS>SUBSTRUCTURE
1	7L63006	1	GROUP	1 B	7L6
