# created with PyMOL 2.5.0
@<TRIPOS>MOLECULE
5TUZ
27 29 1                 
SMALL
USER_CHARGES
@<TRIPOS>ATOM
1	   N	-7.972	-12.798	-7.108	N.3	1	SAM3001	0.000	
2	  CA	-8.162	-12.260	-5.739	C.3	1	SAM3001	0.000	
3	   C	-7.194	-11.128	-5.475	C.2	1	SAM3001	0.000	
4	   O	-6.449	-10.734	-6.402	O.co2	1	SAM3001	0.000	
5	  CB	-7.978	-13.358	-4.687	C.3	1	SAM3001	0.000	
6	  CG	-9.265	-14.174	-4.502	C.3	1	SAM3001	0.000	
7	  SD	-10.443	-13.373	-3.623	S.3	1	SAM3001	0.000	
8	  CE	-10.691	-14.267	-2.248	C.3	1	SAM3001	0.000	
9	 C5'	-11.910	-13.424	-4.425	C.3	1	SAM3001	0.000	
10	 C4'	-12.046	-12.514	-5.655	C.3	1	SAM3001	0.000	
11	 O4'	-11.201	-12.889	-6.752	O.3	1	SAM3001	0.000	
12	 C3'	-13.449	-12.563	-6.236	C.3	1	SAM3001	0.000	
13	 O3'	-14.322	-11.669	-5.551	O.3	1	SAM3001	0.000	
14	 C2'	-13.236	-12.142	-7.668	C.3	1	SAM3001	0.000	
15	 O2'	-13.067	-10.726	-7.702	O.3	1	SAM3001	0.000	
16	 C1'	-11.917	-12.814	-7.992	C.3	1	SAM3001	0.000	
17	 OXT	-7.185	-10.612	-4.330	O.co2	1	SAM3001	0.000	
18	  N1	-14.027	-15.796	-11.680	N.2	1	SAM3001	0.000	
19	  C2	-13.981	-14.453	-11.612	C.2	1	SAM3001	0.000	
20	  N3	-13.391	-13.829	-10.583	N.2	1	SAM3001	0.000	
21	  C4	-12.831	-14.550	-9.576	C.2	1	SAM3001	0.000	
22	  C5	-12.872	-15.939	-9.628	C.2	1	SAM3001	0.000	
23	  C6	-13.490	-16.565	-10.708	C.2	1	SAM3001	0.000	
24	  N6	-13.560	-17.928	-10.811	N.pl3	1	SAM3001	0.000	
25	  N7	-12.252	-16.391	-8.515	N.2	1	SAM3001	0.000	
26	  C8	-11.838	-15.323	-7.794	C.2	1	SAM3001	0.000	
27	  N9	-12.189	-14.200	-8.451	N.2	1	SAM3001	0.000	
@<TRIPOS>BOND
1 1 2 1
2 2 3 1
3 2 5 1
4 3 4 ar
5 3 17 ar
6 5 6 1
7 6 7 1
8 7 8 1
9 7 9 1
10 9 10 1
11 10 11 1
12 10 12 1
13 11 16 1
14 12 13 1
15 12 14 1
16 14 15 1
17 14 16 1
18 16 27 1
19 18 19 ar
20 18 23 ar
21 19 20 ar
22 20 21 ar
23 21 22 ar
24 21 27 ar
25 22 23 ar
26 22 25 ar
27 23 24 1
28 25 26 ar
29 26 27 ar
@<TRIPOS>SUBSTRUCTURE
1	SAM3001	1	GROUP	1 A	SAM
