# created with PyMOL 2.4.0
@<TRIPOS>MOLECULE
temp
50 52 1                 
SMALL
USER_CHARGES
@<TRIPOS>ATOM
1	   N	10.621	-32.165	44.463	N.4	1	SAM1	0.000	
2	  CA	9.239	-31.917	44.001	C.3	1	SAM1	0.000	
3	   C	8.643	-33.227	43.582	C.2	1	SAM1	0.000	
4	   O	9.213	-34.280	43.943	O.co2	1	SAM1	0.000	
5	  CB	9.239	-30.948	42.814	C.3	1	SAM1	0.000	
6	  CG	9.201	-29.493	43.292	C.3	1	SAM1	0.000	
7	  SD	7.713	-29.001	43.867	S.3	1	SAM1	0.000	
8	  CE	7.174	-27.751	42.910	C.3	1	SAM1	0.000	
9	 C5'	7.892	-28.296	45.370	C.3	1	SAM1	0.000	
10	 C4'	8.139	-29.244	46.550	C.3	1	SAM1	0.000	
11	 O4'	9.419	-29.883	46.487	O.3	1	SAM1	0.000	
12	 C3'	8.134	-28.510	47.887	C.3	1	SAM1	0.000	
13	 O3'	6.815	-28.409	48.434	O.3	1	SAM1	0.000	
14	 C2'	9.014	-29.386	48.750	C.3	1	SAM1	0.000	
15	 O2'	8.258	-30.511	49.194	O.3	1	SAM1	0.000	
16	 C1'	10.057	-29.877	47.767	C.3	1	SAM1	0.000	
17	 OXT	7.597	-33.207	42.892	O.co2	1	SAM1	0.000	
18	  N1	13.936	-27.701	50.446	N.2	1	SAM1	0.000	
19	  C2	13.072	-28.657	50.830	C.2	1	SAM1	0.000	
20	  N3	12.117	-29.126	50.009	N.2	1	SAM1	0.000	
21	  C4	11.994	-28.622	48.753	C.2	1	SAM1	0.000	
22	  C5	12.870	-27.635	48.327	C.2	1	SAM1	0.000	
23	  C6	13.858	-27.173	49.199	C.2	1	SAM1	0.000	
24	  N6	14.735	-26.207	48.808	N.pl3	1	SAM1	0.000	
25	  N7	12.534	-27.326	47.052	N.2	1	SAM1	0.000	
26	  C8	11.475	-28.095	46.708	C.2	1	SAM1	0.000	
27	  N9	11.159	-28.891	47.739	N.2	1	SAM1	0.000	
28	  HA	8.655	-31.472	44.807	 H	1	SAM1	0.000	
29	 HB1	8.363	-31.143	42.195	 H	1	SAM1	0.000	
30	 HB2	10.142	-31.106	42.225	 H	1	SAM1	0.000	
31	 HG1	9.473	-28.851	42.454	 H	1	SAM1	0.000	
32	 HG2	9.932	-29.377	44.092	 H	1	SAM1	0.000	
33	 HE1	7.023	-28.111	41.892	 H	1	SAM1	0.000	
34	 HE2	7.914	-26.951	42.906	 H	1	SAM1	0.000	
35	 HE3	6.231	-27.372	43.304	 H	1	SAM1	0.000	
36	  H1	11.158	-32.577	43.713	 H	1	SAM1	0.000	
37	  H2	10.604	-32.796	45.251	 H	1	SAM1	0.000	
38	  H2	13.148	-29.060	51.829	 H	1	SAM1	0.000	
39	  H3	11.045	-31.291	44.740	 H	1	SAM1	0.000	
40	  H8	10.966	-28.071	45.756	 H	1	SAM1	0.000	
41	 H1'	10.445	-30.861	48.031	 H	1	SAM1	0.000	
42	 H2'	9.421	-28.874	49.622	 H	1	SAM1	0.000	
43	 H2'	7.552	-30.183	49.756	 H	1	SAM1	0.000	
44	 H3'	8.484	-27.481	47.808	 H	1	SAM1	0.000	
45	 H3'	6.888	-27.978	49.289	 H	1	SAM1	0.000	
46	 H4'	7.329	-29.970	46.480	 H	1	SAM1	0.000	
47	 H61	14.675	-25.817	47.878	 H	1	SAM1	0.000	
48	 H62	15.445	-25.881	49.448	 H	1	SAM1	0.000	
49	H5'1	6.982	-27.735	45.582	 H	1	SAM1	0.000	
50	H5'2	8.737	-27.610	45.315	 H	1	SAM1	0.000	
@<TRIPOS>BOND
1 1 2 1
2 1 36 1
3 1 37 1
4 1 39 1
5 2 3 1
6 2 5 1
7 2 28 1
8 3 4 ar
9 3 17 ar
10 5 6 1
11 5 29 1
12 5 30 1
13 6 7 1
14 6 31 1
15 6 32 1
16 7 8 1
17 7 9 1
18 8 33 1
19 8 34 1
20 8 35 1
21 9 10 1
22 9 49 1
23 9 50 1
24 10 11 1
25 10 12 1
26 10 46 1
27 11 16 1
28 12 13 1
29 12 14 1
30 12 44 1
31 13 45 1
32 14 15 1
33 14 16 1
34 14 42 1
35 15 43 1
36 16 27 1
37 16 41 1
38 18 19 ar
39 18 23 ar
40 19 20 ar
41 19 38 1
42 20 21 ar
43 21 22 ar
44 21 27 ar
45 22 23 ar
46 22 25 ar
47 23 24 1
48 24 47 1
49 24 48 1
50 25 26 ar
51 26 27 ar
52 26 40 1
@<TRIPOS>SUBSTRUCTURE
1	SAM1	1	GROUP	1 B	SAM
