@<TRIPOS>MOLECULE
5TUZ.B
51 53 1 0 0 
SMALL
USER_CHARGES


@<TRIPOS>ATOM
  1 N       10.6210   -32.1650    44.4630 N.4   1 SAM  -0.8530 
  2 H1      11.1578   -32.5770    43.7132 H     1 SAM   0.4500 
  3 H2      10.6043   -32.7962    45.2513 H     1 SAM   0.4500 
  4 H3      11.0452   -31.2913    44.7402 H     1 SAM   0.4500 
  5 CA       9.2390   -31.9170    44.0010 C.3   1 SAM   0.3170 
  6 HA       8.6551   -31.4722    44.8068 H     1 SAM   0.0800 
  7 C        8.6430   -33.2270    43.5820 C.2   1 SAM   0.9060 
  8 O        9.2130   -34.2800    43.9430 O.co2 1 SAM  -0.9000 
  9 CB       9.2390   -30.9480    42.8140 C.3   1 SAM  -0.1600 
 10 HB1      8.3631   -31.1427    42.1951 H     1 SAM   0.0800 
 11 HB2     10.1424   -31.1061    42.2250 H     1 SAM   0.0800 
 12 CG       9.2010   -29.4930    43.2920 C.3   1 SAM  -0.1525 
 13 HG1      9.4734   -28.8507    42.4545 H     1 SAM   0.0800 
 14 HG2      9.9322   -29.3766    44.0919 H     1 SAM   0.0800 
 15 SD       7.7130   -29.0010    43.8670 S.3   1 SAM   0.9775 
 16 CE       7.1740   -27.7510    42.9100 C.3   1 SAM  -0.2325 
 17 HE1      7.0235   -28.1114    41.8924 H     1 SAM   0.0800 
 18 HE2      7.9142   -26.9509    42.9064 H     1 SAM   0.0800 
 19 HE3      6.2312   -27.3719    43.3044 H     1 SAM   0.0800 
 20 C5'      7.8920   -28.2960    45.3700 C.3   1 SAM  -0.1525 
 21 H5'1     6.9821   -27.7346    45.5821 H     1 SAM   0.0800 
 22 H5'2     8.7374   -27.6102    45.3146 H     1 SAM   0.0800 
 23 C4'      8.1390   -29.2440    46.5500 C.3   1 SAM   0.2000 
 24 H4'      7.3286   -29.9696    46.4798 H     1 SAM   0.0800 
 25 O4'      9.4190   -29.8830    46.4870 O.3   1 SAM  -0.5600 
 26 C3'      8.1340   -28.5100    47.8870 C.3   1 SAM   0.2000 
 27 H3'      8.4836   -27.4806    47.8077 H     1 SAM   0.0800 
 28 O3'      6.8150   -28.4090    48.4340 O.3   1 SAM  -0.6800 
 29 H3'      6.4678   -29.2998    48.5209 H     1 SAM   0.4000 
 30 C2'      9.0140   -29.3860    48.7500 C.3   1 SAM   0.2000 
 31 H2'      9.4206   -28.8738    49.6220 H     1 SAM   0.0800 
 32 O2'      8.2580   -30.5110    49.1940 O.3   1 SAM  -0.6800 
 33 H2'      7.5525   -30.1830    49.7564 H     1 SAM   0.4000 
 34 C1'     10.0570   -29.8770    47.7670 C.3   1 SAM   0.5691 
 35 H1'     10.4453   -30.8606    48.0313 H     1 SAM   0.0800 
 36 OXT      7.5970   -33.2070    42.8920 O.co2 1 SAM  -0.9000 
 37 N1      13.9360   -27.7010    50.4460 N.2   1 SAM  -0.6610 
 38 C2      13.0720   -28.6570    50.8300 C.2   1 SAM   0.6010 
 39 H2      13.1478   -29.0604    51.8290 H     1 SAM   0.0600 
 40 N3      12.1170   -29.1260    50.0090 N.2   1 SAM  -0.6610 
 41 C4      11.9940   -28.6220    48.7530 C.2   1 SAM   0.5000 
 42 C5      12.8700   -27.6350    48.3270 C.2   1 SAM   0.4500 
 43 C6      13.8580   -27.1730    49.1990 C.2   1 SAM   0.6110 
 44 N6      14.7350   -26.2070    48.8080 N.2   1 SAM  -0.2000 
 45 H62     15.4453   -25.8809    49.4477 H     1 SAM   0.4000 
 46 H61     14.6750   -25.8168    47.8784 H     1 SAM   0.4000 
 47 N7      12.5340   -27.3260    47.0520 N.2   1 SAM  -0.6960 
 48 C8      11.4750   -28.0950    46.7080 C.3   1 SAM   0.4551 
 49 H81     11.7322   -28.7043    45.8416 H     1 SAM   0.0800 
 50 H82     10.6248   -27.4579    46.4645 H     1 SAM   0.0800 
 51 N9      11.1590   -28.8910    47.7390 N.pl3 1 SAM  -0.7882 
@<TRIPOS>BOND
  1   1   2  1   
  2   1   3  1   
  3   1   4  1   
  4   1   5  1   
  5   5   6  1   
  6   5   7  1   
  7   5   9  1   
  8   7   8  ar  
  9   7  36  ar  
 10   9  10  1   
 11   9  11  1   
 12   9  12  1   
 13  12  13  1   
 14  12  14  1   
 15  12  15  1   
 16  15  16  1   
 17  15  20  1   
 18  16  17  1   
 19  16  18  1   
 20  16  19  1   
 21  20  21  1   
 22  20  22  1   
 23  20  23  1   
 24  23  24  1   
 25  23  25  1   
 26  23  26  1   
 27  25  34  1   
 28  26  27  1   
 29  26  28  1   
 30  26  30  1   
 31  28  29  1   
 32  30  31  1   
 33  30  32  1   
 34  30  34  1   
 35  32  33  1   
 36  34  35  1   
 37  34  51  1   
 38  37  38  2   
 39  37  43  1   
 40  38  39  1   
 41  38  40  1   
 42  40  41  2   
 43  41  42  1   
 44  41  51  1   
 45  42  43  1   
 46  42  47  2   
 47  43  44  2   
 48  44  45  1   
 49  44  46  1   
 50  47  48  1   
 51  48  49  1   
 52  48  50  1   
 53  48  51  1   
@<TRIPOS>SUBSTRUCTURE
  1 SAM  25 GROUP 4 B **** 0

# MOE 2022.02 (io_trps.svl 2020.11)
