@<TRIPOS>MOLECULE
5TUZ.A
51 53 1 0 0 
SMALL
USER_CHARGES


@<TRIPOS>ATOM
  1 N       -7.9720   -12.7980    -7.1080 N.4   1 SAM  -0.8530 
  2 H1      -7.0329   -13.1578    -7.2010 H     1 SAM   0.4500 
  3 H2      -8.1185   -12.0609    -7.7828 H     1 SAM   0.4500 
  4 H3      -8.6353   -13.5417    -7.2725 H     1 SAM   0.4500 
  5 CA      -8.1620   -12.2600    -5.7390 C.3   1 SAM   0.3170 
  6 HA      -9.1811   -11.8799    -5.6682 H     1 SAM   0.0800 
  7 C       -7.1940   -11.1280    -5.4750 C.2   1 SAM   0.9060 
  8 O       -6.4490   -10.7340    -6.4020 O.co2 1 SAM  -0.9000 
  9 CB      -7.9780   -13.3580    -4.6870 C.3   1 SAM  -0.1600 
 10 HB1     -7.7097   -12.8975    -3.7362 H     1 SAM   0.0800 
 11 HB2     -7.1773   -14.0251    -5.0063 H     1 SAM   0.0800 
 12 CG      -9.2650   -14.1740    -4.5020 C.3   1 SAM  -0.1525 
 13 HG1     -9.0154   -15.0988    -3.9818 H     1 SAM   0.0800 
 14 HG2     -9.6692   -14.4088    -5.4867 H     1 SAM   0.0800 
 15 SD     -10.4430   -13.3730    -3.6230 S.3   1 SAM   0.9775 
 16 CE     -10.6910   -14.2670    -2.2480 C.3   1 SAM  -0.2325 
 17 HE1     -9.7748   -14.2875    -1.6578 H     1 SAM   0.0800 
 18 HE2    -10.9698   -15.2846    -2.5216 H     1 SAM   0.0800 
 19 HE3    -11.4913   -13.8164    -1.6610 H     1 SAM   0.0800 
 20 C5'    -11.9100   -13.4240    -4.4250 C.3   1 SAM  -0.1525 
 21 H5'1   -12.6867   -13.1404    -3.7147 H     1 SAM   0.0800 
 22 H5'2   -12.0741   -14.4508    -4.7520 H     1 SAM   0.0800 
 23 C4'    -12.0460   -12.5140    -5.6550 C.3   1 SAM   0.2000 
 24 H4'    -11.7733   -11.5311    -5.2708 H     1 SAM   0.0800 
 25 O4'    -11.2010   -12.8890    -6.7520 O.3   1 SAM  -0.5600 
 26 C3'    -13.4490   -12.5630    -6.2360 C.3   1 SAM   0.2000 
 27 H3'    -13.9203   -13.5417    -6.1457 H     1 SAM   0.0800 
 28 O3'    -14.3220   -11.6690    -5.5510 O.3   1 SAM  -0.6800 
 29 H3'    -15.1764   -11.7065    -5.9871 H     1 SAM   0.4000 
 30 C2'    -13.2360   -12.1420    -7.6680 C.3   1 SAM   0.2000 
 31 H2'    -14.0468   -12.4003    -8.3492 H     1 SAM   0.0800 
 32 O2'    -13.0670   -10.7260    -7.7020 O.3   1 SAM  -0.6800 
 33 H2'    -13.8943   -10.3281    -7.4213 H     1 SAM   0.4000 
 34 C1'    -11.9170   -12.8140    -7.9920 C.3   1 SAM   0.5691 
 35 H1'    -11.3640   -12.2731    -8.7599 H     1 SAM   0.0800 
 36 OXT     -7.1850   -10.6120    -4.3300 O.co2 1 SAM  -0.9000 
 37 N1     -14.0270   -15.7960   -11.6800 N.2   1 SAM  -0.6610 
 38 C2     -13.9810   -14.4530   -11.6120 C.2   1 SAM   0.6010 
 39 H2     -14.4279   -13.8669   -12.4014 H     1 SAM   0.0600 
 40 N3     -13.3910   -13.8290   -10.5830 N.2   1 SAM  -0.6610 
 41 C4     -12.8310   -14.5500    -9.5760 C.2   1 SAM   0.5000 
 42 C5     -12.8720   -15.9390    -9.6280 C.2   1 SAM   0.4500 
 43 C6     -13.4900   -16.5650   -10.7080 C.2   1 SAM   0.6110 
 44 N6     -13.5600   -17.9280   -10.8110 N.2   1 SAM  -0.2000 
 45 H62    -14.0151   -18.3516   -11.6069 H     1 SAM   0.4000 
 46 H61    -13.1565   -18.5102   -10.0911 H     1 SAM   0.4000 
 47 N7     -12.2520   -16.3910    -8.5150 N.2   1 SAM  -0.6960 
 48 C8     -11.8380   -15.3230    -7.7940 C.3   1 SAM   0.4551 
 49 H81    -10.7549   -15.3566    -7.6764 H     1 SAM   0.0800 
 50 H82    -12.3107   -15.3371    -6.8119 H     1 SAM   0.0800 
 51 N9     -12.1890   -14.2000    -8.4510 N.pl3 1 SAM  -0.7882 
@<TRIPOS>BOND
  1   1   2  1   
  2   1   3  1   
  3   1   4  1   
  4   1   5  1   
  5   5   6  1   
  6   5   7  1   
  7   5   9  1   
  8   7   8  ar  
  9   7  36  ar  
 10   9  10  1   
 11   9  11  1   
 12   9  12  1   
 13  12  13  1   
 14  12  14  1   
 15  12  15  1   
 16  15  16  1   
 17  15  20  1   
 18  16  17  1   
 19  16  18  1   
 20  16  19  1   
 21  20  21  1   
 22  20  22  1   
 23  20  23  1   
 24  23  24  1   
 25  23  25  1   
 26  23  26  1   
 27  25  34  1   
 28  26  27  1   
 29  26  28  1   
 30  26  30  1   
 31  28  29  1   
 32  30  31  1   
 33  30  32  1   
 34  30  34  1   
 35  32  33  1   
 36  34  35  1   
 37  34  51  1   
 38  37  38  2   
 39  37  43  1   
 40  38  39  1   
 41  38  40  1   
 42  40  41  2   
 43  41  42  1   
 44  41  51  1   
 45  42  43  1   
 46  42  47  2   
 47  43  44  2   
 48  44  45  1   
 49  44  46  1   
 50  47  48  1   
 51  48  49  1   
 52  48  50  1   
 53  48  51  1   
@<TRIPOS>SUBSTRUCTURE
  1 SAM  25 GROUP 4 A **** 0

# MOE 2022.02 (io_trps.svl 2020.11)
