# created with PyMOL 2.5.0
@<TRIPOS>MOLECULE
5TUZ
27 29 1                 
SMALL
USER_CHARGES
@<TRIPOS>ATOM
1	   N	10.621	-32.165	44.463	N.3	1	SAM3001	0.000	
2	  CA	9.239	-31.917	44.001	C.3	1	SAM3001	0.000	
3	   C	8.643	-33.227	43.582	C.2	1	SAM3001	0.000	
4	   O	9.213	-34.280	43.943	O.co2	1	SAM3001	0.000	
5	  CB	9.239	-30.948	42.814	C.3	1	SAM3001	0.000	
6	  CG	9.201	-29.493	43.292	C.3	1	SAM3001	0.000	
7	  SD	7.713	-29.001	43.867	S.3	1	SAM3001	0.000	
8	  CE	7.174	-27.751	42.910	C.3	1	SAM3001	0.000	
9	 C5'	7.892	-28.296	45.370	C.3	1	SAM3001	0.000	
10	 C4'	8.139	-29.244	46.550	C.3	1	SAM3001	0.000	
11	 O4'	9.419	-29.883	46.487	O.3	1	SAM3001	0.000	
12	 C3'	8.134	-28.510	47.887	C.3	1	SAM3001	0.000	
13	 O3'	6.815	-28.409	48.434	O.3	1	SAM3001	0.000	
14	 C2'	9.014	-29.386	48.750	C.3	1	SAM3001	0.000	
15	 O2'	8.258	-30.511	49.194	O.3	1	SAM3001	0.000	
16	 C1'	10.057	-29.877	47.767	C.3	1	SAM3001	0.000	
17	 OXT	7.597	-33.207	42.892	O.co2	1	SAM3001	0.000	
18	  N1	13.936	-27.701	50.446	N.2	1	SAM3001	0.000	
19	  C2	13.072	-28.657	50.830	C.2	1	SAM3001	0.000	
20	  N3	12.117	-29.126	50.009	N.2	1	SAM3001	0.000	
21	  C4	11.994	-28.622	48.753	C.2	1	SAM3001	0.000	
22	  C5	12.870	-27.635	48.327	C.2	1	SAM3001	0.000	
23	  C6	13.858	-27.173	49.199	C.2	1	SAM3001	0.000	
24	  N6	14.735	-26.207	48.808	N.pl3	1	SAM3001	0.000	
25	  N7	12.534	-27.326	47.052	N.2	1	SAM3001	0.000	
26	  C8	11.475	-28.095	46.708	C.2	1	SAM3001	0.000	
27	  N9	11.159	-28.891	47.739	N.2	1	SAM3001	0.000	
@<TRIPOS>BOND
1 1 2 1
2 2 3 1
3 2 5 1
4 3 4 ar
5 3 17 ar
6 5 6 1
7 6 7 1
8 7 8 1
9 7 9 1
10 9 10 1
11 10 11 1
12 10 12 1
13 11 16 1
14 12 13 1
15 12 14 1
16 14 15 1
17 14 16 1
18 16 27 1
19 18 19 ar
20 18 23 ar
21 19 20 ar
22 20 21 ar
23 21 22 ar
24 21 27 ar
25 22 23 ar
26 22 25 ar
27 23 24 1
28 25 26 ar
29 26 27 ar
@<TRIPOS>SUBSTRUCTURE
1	SAM3001	1	GROUP	1 B	SAM
