# created with PyMOL 2.4.0
@<TRIPOS>MOLECULE
temp
50 52 1                 
SMALL
USER_CHARGES
@<TRIPOS>ATOM
1	   N	4.867	-1.758	26.208	N.4	1	SAM1	0.000	
2	  CA	3.696	-0.944	26.475	C.3	1	SAM1	0.000	
3	   C	2.623	-1.567	27.424	C.2	1	SAM1	0.000	
4	   O	1.874	-0.641	27.889	O.co2	1	SAM1	0.000	
5	  CB	3.080	-0.473	25.143	C.3	1	SAM1	0.000	
6	  CG	4.097	0.378	24.335	C.3	1	SAM1	0.000	
7	  SD	3.760	0.857	22.596	S.3	1	SAM1	0.000	
8	  CE	3.401	-0.687	21.702	C.3	1	SAM1	0.000	
9	 C5'	5.356	1.357	21.912	C.3	1	SAM1	0.000	
10	 C4'	5.954	2.535	22.697	C.3	1	SAM1	0.000	
11	 O4'	7.177	2.790	22.055	O.3	1	SAM1	0.000	
12	 C3'	5.273	3.907	22.795	C.3	1	SAM1	0.000	
13	 O3'	5.109	4.269	24.145	O.3	1	SAM1	0.000	
14	 C2'	6.322	4.859	22.192	C.3	1	SAM1	0.000	
15	 O2'	6.447	6.086	22.841	O.3	1	SAM1	0.000	
16	 C1'	7.610	4.067	22.348	C.3	1	SAM1	0.000	
17	 OXT	2.815	-2.929	27.250	O.co2	1	SAM1	0.000	
18	  N1	12.716	4.081	21.403	N.2	1	SAM1	0.000	
19	  C2	12.065	3.736	22.556	C.2	1	SAM1	0.000	
20	  N3	10.711	3.807	22.601	N.2	1	SAM1	0.000	
21	  C4	9.983	4.188	21.533	C.2	1	SAM1	0.000	
22	  C5	10.628	4.527	20.351	C.2	1	SAM1	0.000	
23	  C6	12.043	4.468	20.294	C.2	1	SAM1	0.000	
24	  N6	12.791	4.732	19.226	N.pl3	1	SAM1	0.000	
25	  N7	9.661	4.870	19.491	N.2	1	SAM1	0.000	
26	  C8	8.444	4.752	20.036	C.2	1	SAM1	0.000	
27	  N9	8.639	4.331	21.344	N.2	1	SAM1	0.000	
28	  HA	4.060	-0.092	27.049	 H	1	SAM1	0.000	
29	 HB1	2.196	0.130	25.351	 H	1	SAM1	0.000	
30	 HB2	2.795	-1.344	24.553	 H	1	SAM1	0.000	
31	 HG1	5.032	-0.183	24.326	 H	1	SAM1	0.000	
32	 HG2	4.235	1.306	24.890	 H	1	SAM1	0.000	
33	 HE1	2.445	-1.087	22.038	 H	1	SAM1	0.000	
34	 HE2	4.189	-1.413	21.900	 H	1	SAM1	0.000	
35	 HE3	3.354	-0.485	20.632	 H	1	SAM1	0.000	
36	  H1	4.597	-2.572	25.674	 H	1	SAM1	0.000	
37	  H2	5.280	-2.051	27.082	 H	1	SAM1	0.000	
38	  H2	12.623	3.411	23.421	 H	1	SAM1	0.000	
39	  H3	5.539	-1.218	25.682	 H	1	SAM1	0.000	
40	  H8	7.498	4.946	19.553	 H	1	SAM1	0.000	
41	 H1'	8.053	4.284	23.320	 H	1	SAM1	0.000	
42	 H2'	6.050	5.134	21.173	 H	1	SAM1	0.000	
43	 H2'	5.599	6.532	22.785	 H	1	SAM1	0.000	
44	 H3'	4.298	3.925	22.308	 H	1	SAM1	0.000	
45	 H3'	4.734	5.153	24.165	 H	1	SAM1	0.000	
46	 H4'	5.911	2.183	23.728	 H	1	SAM1	0.000	
47	 H61	12.353	5.002	18.357	 H	1	SAM1	0.000	
48	 H62	13.797	4.662	19.284	 H	1	SAM1	0.000	
49	H5'1	5.219	1.656	20.873	 H	1	SAM1	0.000	
50	H5'2	6.043	0.512	21.960	 H	1	SAM1	0.000	
@<TRIPOS>BOND
1 1 2 1
2 1 36 1
3 1 37 1
4 1 39 1
5 2 3 1
6 2 5 1
7 2 28 1
8 3 4 2
9 3 17 2
10 5 6 1
11 5 29 1
12 5 30 1
13 6 7 1
14 6 31 1
15 6 32 1
16 7 8 1
17 7 9 1
18 8 33 1
19 8 34 1
20 8 35 1
21 9 10 1
22 9 49 1
23 9 50 1
24 10 11 1
25 10 12 1
26 10 46 1
27 11 16 1
28 12 13 1
29 12 14 1
30 12 44 1
31 13 45 1
32 14 15 1
33 14 16 1
34 14 42 1
35 15 43 1
36 16 27 1
37 16 41 1
38 18 19 ar
39 18 23 ar
40 19 20 ar
41 19 38 1
42 20 21 ar
43 21 22 ar
44 21 27 ar
45 22 23 ar
46 22 25 ar
47 23 24 1
48 24 47 1
49 24 48 1
50 25 26 ar
51 26 27 ar
52 26 40 1
@<TRIPOS>SUBSTRUCTURE
1	SAM1	1	GROUP	1 A	SAM
