# created with PyMOL 2.5.0
@<TRIPOS>MOLECULE
1SQF
27 29 1                 
SMALL
USER_CHARGES
@<TRIPOS>ATOM
1	   N	4.867	-1.758	26.208	N.3	1	SAM430	0.000	
2	  CA	3.696	-0.944	26.475	C.3	1	SAM430	0.000	
3	   C	2.623	-1.567	27.424	C.2	1	SAM430	0.000	
4	   O	1.874	-0.641	27.889	O.co2	1	SAM430	0.000	
5	  CB	3.080	-0.473	25.143	C.3	1	SAM430	0.000	
6	  CG	4.097	0.378	24.335	C.3	1	SAM430	0.000	
7	  SD	3.760	0.857	22.596	S.3	1	SAM430	0.000	
8	  CE	3.401	-0.687	21.702	C.3	1	SAM430	0.000	
9	 C5'	5.356	1.357	21.912	C.3	1	SAM430	0.000	
10	 C4'	5.954	2.535	22.697	C.3	1	SAM430	0.000	
11	 O4'	7.177	2.790	22.055	O.3	1	SAM430	0.000	
12	 C3'	5.273	3.907	22.795	C.3	1	SAM430	0.000	
13	 O3'	5.109	4.269	24.145	O.3	1	SAM430	0.000	
14	 C2'	6.322	4.859	22.192	C.3	1	SAM430	0.000	
15	 O2'	6.447	6.086	22.841	O.3	1	SAM430	0.000	
16	 C1'	7.610	4.067	22.348	C.3	1	SAM430	0.000	
17	 OXT	2.815	-2.929	27.250	O.co2	1	SAM430	0.000	
18	  N1	12.716	4.081	21.403	N.2	1	SAM430	0.000	
19	  C2	12.065	3.736	22.556	C.2	1	SAM430	0.000	
20	  N3	10.711	3.807	22.601	N.2	1	SAM430	0.000	
21	  C4	9.983	4.188	21.533	C.2	1	SAM430	0.000	
22	  C5	10.628	4.527	20.351	C.2	1	SAM430	0.000	
23	  C6	12.043	4.468	20.294	C.2	1	SAM430	0.000	
24	  N6	12.791	4.732	19.226	N.pl3	1	SAM430	0.000	
25	  N7	9.661	4.870	19.491	N.2	1	SAM430	0.000	
26	  C8	8.444	4.752	20.036	C.2	1	SAM430	0.000	
27	  N9	8.639	4.331	21.344	N.2	1	SAM430	0.000	
@<TRIPOS>BOND
1 1 2 1
2 2 3 1
3 2 5 1
4 3 4 2
5 3 17 1
6 5 6 1
7 6 7 1
8 7 8 1
9 7 9 1
10 9 10 1
11 10 11 1
12 10 12 1
13 11 16 1
14 12 13 1
15 12 14 1
16 14 15 1
17 14 16 1
18 16 27 1
19 18 19 ar
20 18 23 ar
21 19 20 ar
22 20 21 ar
23 21 22 ar
24 21 27 ar
25 22 23 ar
26 22 25 ar
27 23 24 1
28 25 26 ar
29 26 27 ar
@<TRIPOS>SUBSTRUCTURE
1	SAM430	1	GROUP	1 A	SAM
