@<TRIPOS>MOLECULE
1SQF.A
51 53 1 0 0 
SMALL
USER_CHARGES


@<TRIPOS>ATOM
  1 N        4.8670    -1.7580    26.2080 N.4   1 SAM  -0.8530 
  2 H1       4.5968    -2.5717    25.6742 H     1 SAM   0.4500 
  3 H2       5.2800    -2.0506    27.0820 H     1 SAM   0.4500 
  4 H3       5.5394    -1.2183    25.6819 H     1 SAM   0.4500 
  5 CA       3.6960    -0.9440    26.4750 C.3   1 SAM   0.3170 
  6 HA       4.0600    -0.0919    27.0490 H     1 SAM   0.0800 
  7 C        2.6230    -1.5670    27.4240 C.2   1 SAM   0.9060 
  8 O        1.8740    -0.6410    27.8890 O.co2 1 SAM  -0.9000 
  9 CB       3.0800    -0.4730    25.1430 C.3   1 SAM  -0.1600 
 10 HB1      2.1959     0.1295    25.3515 H     1 SAM   0.0800 
 11 HB2      2.7950    -1.3443    24.5533 H     1 SAM   0.0800 
 12 CG       4.0970     0.3780    24.3350 C.3   1 SAM  -0.1525 
 13 HG1      5.0318    -0.1825    24.3262 H     1 SAM   0.0800 
 14 HG2      4.2349     1.3056    24.8905 H     1 SAM   0.0800 
 15 SD       3.7600     0.8570    22.5960 S.3   1 SAM   0.9775 
 16 CE       3.4010    -0.6870    21.7020 C.3   1 SAM  -0.2325 
 17 HE1      2.4446    -1.0875    22.0381 H     1 SAM   0.0800 
 18 HE2      4.1890    -1.4134    21.9005 H     1 SAM   0.0800 
 19 HE3      3.3544    -0.4848    20.6319 H     1 SAM   0.0800 
 20 C5'      5.3560     1.3570    21.9120 C.3   1 SAM  -0.1525 
 21 H5'1     5.2193     1.6555    20.8726 H     1 SAM   0.0800 
 22 H5'2     6.0434     0.5125    21.9601 H     1 SAM   0.0800 
 23 C4'      5.9540     2.5350    22.6970 C.3   1 SAM   0.2000 
 24 H4'      5.9108     2.1829    23.7276 H     1 SAM   0.0800 
 25 O4'      7.1770     2.7900    22.0550 O.3   1 SAM  -0.5600 
 26 C3'      5.2730     3.9070    22.7950 C.3   1 SAM   0.2000 
 27 H3'      4.2980     3.9247    22.3080 H     1 SAM   0.0800 
 28 O3'      5.1090     4.2690    24.1450 O.3   1 SAM  -0.6800 
 29 H3'      4.7343     5.1526    24.1651 H     1 SAM   0.4000 
 30 C2'      6.3220     4.8590    22.1920 C.3   1 SAM   0.2000 
 31 H2'      6.0505     5.1340    21.1728 H     1 SAM   0.0800 
 32 O2'      6.4470     6.0860    22.8410 O.3   1 SAM  -0.6800 
 33 H2'      6.6876     5.9087    23.7533 H     1 SAM   0.4000 
 34 C1'      7.6100     4.0670    22.3480 C.3   1 SAM   0.5691 
 35 H1'      8.0534     4.2841    23.3198 H     1 SAM   0.0800 
 36 OXT      2.8150    -2.9290    27.2500 O.co2 1 SAM  -0.9000 
 37 N1      12.7160     4.0810    21.4030 N.2   1 SAM  -0.6610 
 38 C2      12.0650     3.7360    22.5560 C.2   1 SAM   0.6010 
 39 H2      12.6233     3.4105    23.4213 H     1 SAM   0.0600 
 40 N3      10.7110     3.8070    22.6010 N.2   1 SAM  -0.6610 
 41 C4       9.9830     4.1880    21.5330 C.2   1 SAM   0.5000 
 42 C5      10.6280     4.5270    20.3510 C.2   1 SAM   0.4500 
 43 C6      12.0430     4.4680    20.2940 C.2   1 SAM   0.6110 
 44 N6      12.7910     4.7320    19.2260 N.2   1 SAM  -0.2000 
 45 H62     13.7969     4.6620    19.2841 H     1 SAM   0.4000 
 46 H61     12.3530     5.0024    18.3570 H     1 SAM   0.4000 
 47 N7       9.6610     4.8700    19.4910 N.2   1 SAM  -0.6960 
 48 C8       8.4440     4.7520    20.0360 C.3   1 SAM   0.4551 
 49 H81      7.8550     4.0170    19.4874 H     1 SAM   0.0800 
 50 H82      7.9300     5.7131    20.0221 H     1 SAM   0.0800 
 51 N9       8.6390     4.3310    21.3440 N.pl3 1 SAM  -0.7882 
@<TRIPOS>BOND
  1   1   2  1   
  2   1   3  1   
  3   1   4  1   
  4   1   5  1   
  5   5   6  1   
  6   5   7  1   
  7   5   9  1   
  8   7   8  ar  
  9   7  36  ar  
 10   9  10  1   
 11   9  11  1   
 12   9  12  1   
 13  12  13  1   
 14  12  14  1   
 15  12  15  1   
 16  15  16  1   
 17  15  20  1   
 18  16  17  1   
 19  16  18  1   
 20  16  19  1   
 21  20  21  1   
 22  20  22  1   
 23  20  23  1   
 24  23  24  1   
 25  23  25  1   
 26  23  26  1   
 27  25  34  1   
 28  26  27  1   
 29  26  28  1   
 30  26  30  1   
 31  28  29  1   
 32  30  31  1   
 33  30  32  1   
 34  30  34  1   
 35  32  33  1   
 36  34  35  1   
 37  34  51  1   
 38  37  38  2   
 39  37  43  1   
 40  38  39  1   
 41  38  40  1   
 42  40  41  2   
 43  41  42  1   
 44  41  51  1   
 45  42  43  1   
 46  42  47  2   
 47  43  44  2   
 48  44  45  1   
 49  44  46  1   
 50  47  48  1   
 51  48  49  1   
 52  48  50  1   
 53  48  51  1   
@<TRIPOS>SUBSTRUCTURE
  1 SAM  25 GROUP 4 A **** 0

# MOE 2022.02 (io_trps.svl 2020.11)
