@<TRIPOS>MOLECULE
3G89.A
36 38 1 0 0 
SMALL
USER_CHARGES


@<TRIPOS>ATOM
  1 P        5.4400     6.1270   -25.4720 P.3   1 AMP   1.3712 
  2 O1P      4.2470     7.0220   -25.8140 O.co2 1 AMP  -1.0333 
  3 O2P      6.6900     6.9400   -25.1320 O.co2 1 AMP  -1.0333 
  4 O3P      5.7050     4.9870   -26.4430 O.co2 1 AMP  -1.0333 
  5 C5'      5.6840     4.1620   -23.7100 C.3   1 AMP   0.1200 
  6 H5'1     6.7639     4.2447   -23.8330 H     1 AMP   0.0800 
  7 H5'2     5.3085     3.3501   -24.3329 H     1 AMP   0.0800 
  8 O5'      5.0520     5.3920   -24.0710 O.3   1 AMP  -0.5512 
  9 C4'      5.3400     3.9030   -22.2450 C.3   1 AMP   0.2000 
 10 H4'      5.9372     3.0541   -21.9122 H     1 AMP   0.0800 
 11 O4'      5.6340     5.0110   -21.4100 O.3   1 AMP  -0.5600 
 12 C3'      3.8510     3.6500   -22.1490 C.3   1 AMP   0.2000 
 13 H3'      3.4104     3.3221   -23.0905 H     1 AMP   0.0800 
 14 O3'      3.6920     2.6820   -21.1010 O.3   1 AMP  -0.6800 
 15 H3'      4.1268     1.8741   -21.3837 H     1 AMP   0.4000 
 16 C2'      3.2360     4.9320   -21.6600 C.3   1 AMP   0.2000 
 17 H2'      2.8540     5.6266   -22.4082 H     1 AMP   0.0800 
 18 O2'      2.1140     4.5610   -20.8360 O.3   1 AMP  -0.6800 
 19 H2'      2.4332     3.9479   -20.1698 H     1 AMP   0.4000 
 20 C1'      4.3910     5.5510   -20.8790 C.3   1 AMP   0.5691 
 21 H1'      4.2323     5.2996   -19.8303 H     1 AMP   0.0800 
 22 N1       6.0540     9.5780   -18.2590 N.2   1 AMP  -0.6610 
 23 C2       6.0700     8.2290   -18.0060 C.2   1 AMP   0.6010 
 24 H2       6.4865     7.9042   -17.0640 H     1 AMP   0.0600 
 25 N3       5.6100     7.2850   -18.8350 N.2   1 AMP  -0.6610 
 26 C4       5.0310     7.7130   -19.9780 C.2   1 AMP   0.5000 
 27 C5       4.9280     9.1330   -20.3360 C.2   1 AMP   0.4500 
 28 C6       5.4980    10.0810   -19.3840 C.2   1 AMP   0.6110 
 29 N6       5.4720    11.4110   -19.6720 N.2   1 AMP  -0.2000 
 30 H62      5.8634    12.0765   -19.0208 H     1 AMP   0.4000 
 31 H61      5.0613    11.7325   -20.5369 H     1 AMP   0.4000 
 32 N7       4.2960     9.2100   -21.5360 N.2   1 AMP  -0.6960 
 33 C8       4.0120     7.9310   -21.8870 C.3   1 AMP   0.4551 
 34 H81      4.4944     7.7101   -22.8391 H     1 AMP   0.0800 
 35 H82      2.9324     7.8248   -21.9934 H     1 AMP   0.0800 
 36 N9       4.4550     7.0410   -20.9480 N.pl3 1 AMP  -0.7882 
@<TRIPOS>BOND
  1   1   2  ar  
  2   1   3  ar  
  3   1   4  ar  
  4   1   8  1   
  5   5   6  1   
  6   5   7  1   
  7   5   8  1   
  8   5   9  1   
  9   9  10  1   
 10   9  11  1   
 11   9  12  1   
 12  11  20  1   
 13  12  13  1   
 14  12  14  1   
 15  12  16  1   
 16  14  15  1   
 17  16  17  1   
 18  16  18  1   
 19  16  20  1   
 20  18  19  1   
 21  20  21  1   
 22  20  36  1   
 23  22  23  2   
 24  22  28  1   
 25  23  24  1   
 26  23  25  1   
 27  25  26  2   
 28  26  27  1   
 29  26  36  1   
 30  27  28  1   
 31  27  32  2   
 32  28  29  2   
 33  29  30  1   
 34  29  31  1   
 35  32  33  1   
 36  33  34  1   
 37  33  35  1   
 38  33  36  1   
@<TRIPOS>SUBSTRUCTURE
  1 AMP  36 GROUP 4 A **** 0

# MOE 2022.02 (io_trps.svl 2020.11)
