# created with PyMOL 2.5.0
@<TRIPOS>MOLECULE
3G89
23 25 1                 
SMALL
USER_CHARGES
@<TRIPOS>ATOM
1	   P	5.440	6.127	-25.472	P.3	1	AMP304	0.000	
2	 O1P	4.247	7.022	-25.814	O.co2	1	AMP304	0.000	
3	 O2P	6.690	6.940	-25.132	O.co2	1	AMP304	0.000	
4	 O3P	5.705	4.987	-26.443	O.co2	1	AMP304	0.000	
5	 C5'	5.684	4.162	-23.710	C.3	1	AMP304	0.000	
6	 O5'	5.052	5.392	-24.071	O.3	1	AMP304	0.000	
7	 C4'	5.340	3.903	-22.245	C.3	1	AMP304	0.000	
8	 O4'	5.634	5.011	-21.410	O.3	1	AMP304	0.000	
9	 C3'	3.851	3.650	-22.149	C.3	1	AMP304	0.000	
10	 O3'	3.692	2.682	-21.101	O.3	1	AMP304	0.000	
11	 C2'	3.236	4.932	-21.660	C.3	1	AMP304	0.000	
12	 O2'	2.114	4.561	-20.836	O.3	1	AMP304	0.000	
13	 C1'	4.391	5.551	-20.879	C.3	1	AMP304	0.000	
14	  N1	6.054	9.578	-18.259	N.2	1	AMP304	0.000	
15	  C2	6.070	8.229	-18.006	C.2	1	AMP304	0.000	
16	  N3	5.610	7.285	-18.835	N.2	1	AMP304	0.000	
17	  C4	5.031	7.713	-19.978	C.2	1	AMP304	0.000	
18	  C5	4.928	9.133	-20.336	C.2	1	AMP304	0.000	
19	  C6	5.498	10.081	-19.384	C.2	1	AMP304	0.000	
20	  N6	5.472	11.411	-19.672	N.pl3	1	AMP304	0.000	
21	  N7	4.296	9.210	-21.536	N.2	1	AMP304	0.000	
22	  C8	4.012	7.931	-21.887	C.2	1	AMP304	0.000	
23	  N9	4.455	7.041	-20.948	N.2	1	AMP304	0.000	
@<TRIPOS>BOND
1 1 2 1
2 1 3 1
3 1 4 2
4 1 6 1
5 5 6 1
6 5 7 1
7 7 8 1
8 7 9 1
9 8 13 1
10 9 10 1
11 9 11 1
12 11 12 1
13 11 13 1
14 13 23 1
15 14 15 ar
16 14 19 ar
17 15 16 ar
18 16 17 ar
19 17 18 ar
20 17 23 ar
21 18 19 ar
22 18 21 ar
23 19 20 1
24 21 22 ar
25 22 23 ar
@<TRIPOS>SUBSTRUCTURE
1	AMP304	1	GROUP	1 A	AMP
