# created with PyMOL 2.4.0
@<TRIPOS>MOLECULE
temp
50 52 1                 
SMALL
USER_CHARGES
@<TRIPOS>ATOM
1	   N	30.833	-1.162	-19.536	N.4	1	SAM1	0.000	
2	  CA	31.694	-1.092	-20.724	C.3	1	SAM1	0.000	
3	   C	32.869	-0.173	-20.468	C.2	1	SAM1	0.000	
4	   O	33.878	-0.250	-21.162	O.co2	1	SAM1	0.000	
5	  CB	30.944	-0.673	-21.991	C.3	1	SAM1	0.000	
6	  CG	30.493	0.782	-22.004	C.3	1	SAM1	0.000	
7	  SD	29.489	0.978	-23.534	S.3	1	SAM1	0.000	
8	  CE	29.603	2.787	-23.630	C.3	1	SAM1	0.000	
9	 C5'	27.858	0.580	-22.914	C.3	1	SAM1	0.000	
10	 C4'	27.439	-0.865	-23.257	C.3	1	SAM1	0.000	
11	 O4'	26.218	-1.057	-22.662	O.3	1	SAM1	0.000	
12	 C3'	27.247	-1.110	-24.773	C.3	1	SAM1	0.000	
13	 O3'	28.072	-2.181	-25.206	O.3	1	SAM1	0.000	
14	 C2'	25.747	-1.308	-24.878	C.3	1	SAM1	0.000	
15	 O2'	25.359	-2.294	-25.846	O.3	1	SAM1	0.000	
16	 C1'	25.351	-1.817	-23.505	C.3	1	SAM1	0.000	
17	 OXT	32.758	0.712	-19.589	O.co2	1	SAM1	0.000	
18	  N1	20.895	-3.822	-21.827	N.2	1	SAM1	0.000	
19	  C2	22.068	-4.452	-22.158	C.2	1	SAM1	0.000	
20	  N3	23.196	-3.806	-22.607	N.2	1	SAM1	0.000	
21	  C4	23.102	-2.450	-22.692	C.2	1	SAM1	0.000	
22	  C5	21.952	-1.756	-22.332	C.2	1	SAM1	0.000	
23	  C6	20.791	-2.444	-21.921	C.2	1	SAM1	0.000	
24	  N6	19.666	-1.825	-21.546	N.pl3	1	SAM1	0.000	
25	  N7	22.156	-0.413	-22.543	N.2	1	SAM1	0.000	
26	  C8	23.415	-0.302	-22.962	C.2	1	SAM1	0.000	
27	  N9	24.013	-1.545	-23.092	N.2	1	SAM1	0.000	
28	  HA	32.058	-2.103	-20.906	 H	1	SAM1	0.000	
29	 HB1	30.061	-1.304	-22.089	 H	1	SAM1	0.000	
30	 HB2	31.602	-0.834	-22.845	 H	1	SAM1	0.000	
31	 HG1	31.356	1.447	-22.028	 H	1	SAM1	0.000	
32	 HG2	29.890	1.001	-21.123	 H	1	SAM1	0.000	
33	 HE1	30.587	3.070	-24.005	 H	1	SAM1	0.000	
34	 HE2	29.456	3.214	-22.638	 H	1	SAM1	0.000	
35	 HE3	28.835	3.164	-24.305	 H	1	SAM1	0.000	
36	  H1	30.471	-0.242	-19.328	 H	1	SAM1	0.000	
37	  H2	31.371	-1.498	-18.750	 H	1	SAM1	0.000	
38	  H2	22.108	-5.527	-22.059	 H	1	SAM1	0.000	
39	  H3	30.065	-1.794	-19.713	 H	1	SAM1	0.000	
40	  H8	23.907	0.636	-23.173	 H	1	SAM1	0.000	
41	 H1'	25.423	-2.904	-23.479	 H	1	SAM1	0.000	
42	 H2'	25.270	-0.379	-25.190	 H	1	SAM1	0.000	
43	 H2'	25.673	-1.998	-26.703	 H	1	SAM1	0.000	
44	 H3'	27.560	-0.308	-25.441	 H	1	SAM1	0.000	
45	 H3'	27.874	-2.345	-26.131	 H	1	SAM1	0.000	
46	 H4'	28.224	-1.539	-22.915	 H	1	SAM1	0.000	
47	 H61	19.620	-0.816	-21.548	 H	1	SAM1	0.000	
48	 H62	18.863	-2.367	-21.260	 H	1	SAM1	0.000	
49	H5'1	27.137	1.268	-23.355	 H	1	SAM1	0.000	
50	H5'2	27.856	0.698	-21.830	 H	1	SAM1	0.000	
@<TRIPOS>BOND
1 1 2 1
2 1 36 1
3 1 37 1
4 1 39 1
5 2 3 1
6 2 5 1
7 2 28 1
8 3 4 ar
9 3 17 ar
10 5 6 1
11 5 29 1
12 5 30 1
13 6 7 1
14 6 31 1
15 6 32 1
16 7 8 1
17 7 9 1
18 8 33 1
19 8 34 1
20 8 35 1
21 9 10 1
22 9 49 1
23 9 50 1
24 10 11 1
25 10 12 1
26 10 46 1
27 11 16 1
28 12 13 1
29 12 14 1
30 12 44 1
31 13 45 1
32 14 15 1
33 14 16 1
34 14 42 1
35 15 43 1
36 16 27 1
37 16 41 1
38 18 19 ar
39 18 23 ar
40 19 20 ar
41 19 38 1
42 20 21 ar
43 21 22 ar
44 21 27 ar
45 22 23 ar
46 22 25 ar
47 23 24 1
48 24 47 1
49 24 48 1
50 25 26 ar
51 26 27 ar
52 26 40 1
@<TRIPOS>SUBSTRUCTURE
1	SAM1	1	GROUP	1 A	SAM
