# created with PyMOL 2.5.0
@<TRIPOS>MOLECULE
3G89
27 29 1                 
SMALL
USER_CHARGES
@<TRIPOS>ATOM
1	   N	30.833	-1.162	-19.536	N.3	1	SAM303	0.000	
2	  CA	31.694	-1.092	-20.724	C.3	1	SAM303	0.000	
3	   C	32.869	-0.173	-20.468	C.2	1	SAM303	0.000	
4	   O	33.878	-0.250	-21.162	O.co2	1	SAM303	0.000	
5	  CB	30.944	-0.673	-21.991	C.3	1	SAM303	0.000	
6	  CG	30.493	0.782	-22.004	C.3	1	SAM303	0.000	
7	  SD	29.489	0.978	-23.534	S.3	1	SAM303	0.000	
8	  CE	29.603	2.787	-23.630	C.3	1	SAM303	0.000	
9	 C5'	27.858	0.580	-22.914	C.3	1	SAM303	0.000	
10	 C4'	27.439	-0.865	-23.257	C.3	1	SAM303	0.000	
11	 O4'	26.218	-1.057	-22.662	O.3	1	SAM303	0.000	
12	 C3'	27.247	-1.110	-24.773	C.3	1	SAM303	0.000	
13	 O3'	28.072	-2.181	-25.206	O.3	1	SAM303	0.000	
14	 C2'	25.747	-1.308	-24.878	C.3	1	SAM303	0.000	
15	 O2'	25.359	-2.294	-25.846	O.3	1	SAM303	0.000	
16	 C1'	25.351	-1.817	-23.505	C.3	1	SAM303	0.000	
17	 OXT	32.758	0.712	-19.589	O.co2	1	SAM303	0.000	
18	  N1	20.895	-3.822	-21.827	N.2	1	SAM303	0.000	
19	  C2	22.068	-4.452	-22.158	C.2	1	SAM303	0.000	
20	  N3	23.196	-3.806	-22.607	N.2	1	SAM303	0.000	
21	  C4	23.102	-2.450	-22.692	C.2	1	SAM303	0.000	
22	  C5	21.952	-1.756	-22.332	C.2	1	SAM303	0.000	
23	  C6	20.791	-2.444	-21.921	C.2	1	SAM303	0.000	
24	  N6	19.666	-1.825	-21.546	N.pl3	1	SAM303	0.000	
25	  N7	22.156	-0.413	-22.543	N.2	1	SAM303	0.000	
26	  C8	23.415	-0.302	-22.962	C.2	1	SAM303	0.000	
27	  N9	24.013	-1.545	-23.092	N.2	1	SAM303	0.000	
@<TRIPOS>BOND
1 1 2 1
2 2 3 1
3 2 5 1
4 3 4 ar
5 3 17 ar
6 5 6 1
7 6 7 1
8 7 8 1
9 7 9 1
10 9 10 1
11 10 11 1
12 10 12 1
13 11 16 1
14 12 13 1
15 12 14 1
16 14 15 1
17 14 16 1
18 16 27 1
19 18 19 ar
20 18 23 ar
21 19 20 ar
22 20 21 ar
23 21 22 ar
24 21 27 ar
25 22 23 ar
26 22 25 ar
27 23 24 1
28 25 26 ar
29 26 27 ar
@<TRIPOS>SUBSTRUCTURE
1	SAM303	1	GROUP	1 A	SAM
