@<TRIPOS>MOLECULE
3G89.A
51 53 1 0 0 
SMALL
USER_CHARGES


@<TRIPOS>ATOM
  1 N       30.8330    -1.1620   -19.5360 N.4   1 SAM  -0.8530 
  2 H1      30.4710    -0.2423   -19.3279 H     1 SAM   0.4500 
  3 H2      31.3707    -1.4979   -18.7498 H     1 SAM   0.4500 
  4 H3      30.0653    -1.7938   -19.7134 H     1 SAM   0.4500 
  5 CA      31.6940    -1.0920   -20.7240 C.3   1 SAM   0.3170 
  6 HA      32.0578    -2.1032   -20.9063 H     1 SAM   0.0800 
  7 C       32.8690    -0.1730   -20.4680 C.2   1 SAM   0.9060 
  8 O       33.8780    -0.2500   -21.1620 O.co2 1 SAM  -0.9000 
  9 CB      30.9440    -0.6730   -21.9910 C.3   1 SAM  -0.1600 
 10 HB1     30.0609    -1.3044   -22.0888 H     1 SAM   0.0800 
 11 HB2     31.6018    -0.8335   -22.8452 H     1 SAM   0.0800 
 12 CG      30.4930     0.7820   -22.0040 C.3   1 SAM  -0.1525 
 13 HG1     31.3561     1.4473   -22.0279 H     1 SAM   0.0800 
 14 HG2     29.8898     1.0009   -21.1229 H     1 SAM   0.0800 
 15 SD      29.4890     0.9780   -23.5340 S.3   1 SAM   0.9775 
 16 CE      29.6030     2.7870   -23.6300 C.3   1 SAM  -0.2325 
 17 HE1     30.5866     3.0696   -24.0052 H     1 SAM   0.0800 
 18 HE2     29.4563     3.2135   -22.6377 H     1 SAM   0.0800 
 19 HE3     28.8346     3.1642   -24.3048 H     1 SAM   0.0800 
 20 C5'     27.8580     0.5800   -22.9140 C.3   1 SAM  -0.1525 
 21 H5'1    27.1373     1.2683   -23.3555 H     1 SAM   0.0800 
 22 H5'2    27.8563     0.6979   -21.8304 H     1 SAM   0.0800 
 23 C4'     27.4390    -0.8650   -23.2570 C.3   1 SAM   0.2000 
 24 H4'     28.2240    -1.5395   -22.9150 H     1 SAM   0.0800 
 25 O4'     26.2180    -1.0570   -22.6620 O.3   1 SAM  -0.5600 
 26 C3'     27.2470    -1.1100   -24.7730 C.3   1 SAM   0.2000 
 27 H3'     27.5603    -0.3078   -25.4412 H     1 SAM   0.0800 
 28 O3'     28.0720    -2.1810   -25.2060 O.3   1 SAM  -0.6800 
 29 H3'     27.8738    -2.3445   -26.1310 H     1 SAM   0.4000 
 30 C2'     25.7470    -1.3080   -24.8780 C.3   1 SAM   0.2000 
 31 H2'     25.2703    -0.3789   -25.1904 H     1 SAM   0.0800 
 32 O2'     25.3590    -2.2940   -25.8460 O.3   1 SAM  -0.6800 
 33 H2'     25.7671    -3.1253   -25.5932 H     1 SAM   0.4000 
 34 C1'     25.3510    -1.8170   -23.5050 C.3   1 SAM   0.5691 
 35 H1'     25.4228    -2.9043   -23.4789 H     1 SAM   0.0800 
 36 OXT     32.7580     0.7120   -19.5890 O.co2 1 SAM  -0.9000 
 37 N1      20.8950    -3.8220   -21.8270 N.2   1 SAM  -0.6610 
 38 C2      22.0680    -4.4520   -22.1580 C.2   1 SAM   0.6010 
 39 H2      22.1082    -5.5267   -22.0594 H     1 SAM   0.0600 
 40 N3      23.1960    -3.8060   -22.6070 N.2   1 SAM  -0.6610 
 41 C4      23.1020    -2.4500   -22.6920 C.2   1 SAM   0.5000 
 42 C5      21.9520    -1.7560   -22.3320 C.2   1 SAM   0.4500 
 43 C6      20.7910    -2.4440   -21.9210 C.2   1 SAM   0.6110 
 44 N6      19.6660    -1.8250   -21.5460 N.2   1 SAM  -0.2000 
 45 H62     18.8627    -2.3666   -21.2605 H     1 SAM   0.4000 
 46 H61     19.6199    -0.8161   -21.5484 H     1 SAM   0.4000 
 47 N7      22.1560    -0.4130   -22.5430 N.2   1 SAM  -0.6960 
 48 C8      23.4150    -0.3020   -22.9620 C.3   1 SAM   0.4551 
 49 H81     23.9786     0.2896   -22.2406 H     1 SAM   0.0800 
 50 H82     23.4244     0.1996   -23.9297 H     1 SAM   0.0800 
 51 N9      24.0130    -1.5450   -23.0920 N.pl3 1 SAM  -0.7882 
@<TRIPOS>BOND
  1   1   2  1   
  2   1   3  1   
  3   1   4  1   
  4   1   5  1   
  5   5   6  1   
  6   5   7  1   
  7   5   9  1   
  8   7   8  ar  
  9   7  36  ar  
 10   9  10  1   
 11   9  11  1   
 12   9  12  1   
 13  12  13  1   
 14  12  14  1   
 15  12  15  1   
 16  15  16  1   
 17  15  20  1   
 18  16  17  1   
 19  16  18  1   
 20  16  19  1   
 21  20  21  1   
 22  20  22  1   
 23  20  23  1   
 24  23  24  1   
 25  23  25  1   
 26  23  26  1   
 27  25  34  1   
 28  26  27  1   
 29  26  28  1   
 30  26  30  1   
 31  28  29  1   
 32  30  31  1   
 33  30  32  1   
 34  30  34  1   
 35  32  33  1   
 36  34  35  1   
 37  34  51  1   
 38  37  38  2   
 39  37  43  1   
 40  38  39  1   
 41  38  40  1   
 42  40  41  2   
 43  41  42  1   
 44  41  51  1   
 45  42  43  1   
 46  42  47  2   
 47  43  44  2   
 48  44  45  1   
 49  44  46  1   
 50  47  48  1   
 51  48  49  1   
 52  48  50  1   
 53  48  51  1   
@<TRIPOS>SUBSTRUCTURE
  1 SAM  25 GROUP 4 A **** 0

# MOE 2022.02 (io_trps.svl 2020.11)
