@<TRIPOS>MOLECULE
5AYF.A
48 51 1 0 0 
SMALL
USER_CHARGES


@<TRIPOS>ATOM
  1 N       33.9240    -3.5310    15.5490 N.4   1 C7H  -0.9590 
  2 H       33.7876    -3.3477    14.5652 H     1 C7H   0.4500 
  3 C1      40.7610    -5.4840    15.7410 C.ar  1 C7H  -0.1500 
  4 H1      41.4467    -5.7623    16.5276 H     1 C7H   0.1500 
  5 C2      41.1920    -4.6440    14.7180 C.ar  1 C7H  -0.1500 
  6 H2      42.2066    -4.2740    14.7135 H     1 C7H   0.1500 
  7 C3      40.3170    -4.2830    13.7050 C.ar  1 C7H  -0.1500 
  8 H3      40.6430    -3.6317    12.9076 H     1 C7H   0.1500 
  9 C4      39.0190    -4.7680    13.7280 C.ar  1 C7H  -0.1500 
 10 H4      38.3402    -4.5017    12.9313 H     1 C7H   0.1500 
 11 C5      37.1570    -6.1090    14.7800 C.3   1 C7H   0.2070 
 12 H5      37.2021    -6.1962    15.8656 H     1 C7H   0.0800 
 13 C6      36.3370    -8.1650    13.5690 C.ar  1 C7H  -0.1500 
 14 H6      35.9384    -7.5216    12.7986 H     1 C7H   0.1500 
 15 C7      36.1860    -9.5410    13.4600 C.ar  1 C7H  -0.1500 
 16 H7      35.6590    -9.9671    12.6191 H     1 C7H   0.1500 
 17 C8      36.7200   -10.3640    14.4440 C.ar  1 C7H  -0.1500 
 18 H8      36.6131   -11.4359    14.3659 H     1 C7H   0.1500 
 19 C9      37.3910    -9.8120    15.5280 C.ar  1 C7H  -0.1500 
 20 H9      37.7962   -10.4580    16.2928 H     1 C7H   0.1500 
 21 C10     38.2630    -7.9150    16.8280 C.3   1 C7H  -0.0165 
 22 H101    37.4796    -7.7090    17.5573 H     1 C7H   0.0800 
 23 H102    38.8703    -8.7516    17.1736 H     1 C7H   0.0800 
 24 C11     39.0740    -6.8560    16.8900 C.3   1 C7H  -0.0165 
 25 H111    40.0158    -7.2431    17.2790 H     1 C7H   0.0800 
 26 H112    38.6203    -6.1948    17.6283 H     1 C7H   0.0800 
 27 C12     39.4580    -5.9690    15.7620 C.ar  1 C7H  -0.1435 
 28 C13     38.5710    -5.5950    14.7620 C.ar  1 C7H  -0.1435 
 29 C14     37.0000    -7.6020    14.6660 C.ar  1 C7H  -0.1435 
 30 C15     37.5450    -8.4340    15.6360 C.ar  1 C7H  -0.1435 
 31 C16     36.0930    -5.2700    14.8910 C.3   1 C7H  -0.0800 
 32 H16     36.0518    -5.1865    13.8050 H     1 C7H   0.0800 
 33 C17     36.2760    -3.7720    14.9930 C.3   1 C7H  -0.1600 
 34 H171    36.1254    -3.3260    14.0099 H     1 C7H   0.0800 
 35 H172    37.2878    -3.5584    15.3377 H     1 C7H   0.0800 
 36 C18     35.2780    -3.1700    15.9720 C.3   1 C7H   0.3430 
 37 H181    35.4654    -3.5604    16.9723 H     1 C7H   0.0800 
 38 H182    35.3820    -2.0850    15.9801 H     1 C7H   0.0800 
 39 C19     33.7480    -4.9610    15.8350 C.3   1 C7H   0.3430 
 40 H191    32.7080    -5.2420    15.6692 H     1 C7H   0.0800 
 41 H192    34.0181    -5.1628    16.8716 H     1 C7H   0.0800 
 42 C20     34.6540    -5.7690    14.9010 C.3   1 C7H  -0.1600 
 43 H201    34.6492    -6.8093    15.2263 H     1 C7H   0.0800 
 44 H202    34.2563    -5.7032    13.8883 H     1 C7H   0.0800 
 45 C21     32.9430    -2.7350    16.3010 C.3   1 C7H   0.2630 
 46 H211    33.0861    -1.6776    16.0786 H     1 C7H   0.0800 
 47 H212    33.0805    -2.9035    17.3691 H     1 C7H   0.0800 
 48 H213    31.9351    -3.0338    16.0128 H     1 C7H   0.0800 
@<TRIPOS>BOND
  1   1   2  1   
  2   1  36  1   
  3   1  39  1   
  4   1  45  1   
  5   3   4  1   
  6   3   5  ar  
  7   3  27  ar  
  8   5   6  1   
  9   5   7  ar  
 10   7   8  1   
 11   7   9  ar  
 12   9  10  1   
 13   9  28  ar  
 14  11  12  1   
 15  11  28  1   
 16  11  29  1   
 17  11  31  1   
 18  13  14  1   
 19  13  15  ar  
 20  13  29  ar  
 21  15  16  1   
 22  15  17  ar  
 23  17  18  1   
 24  17  19  ar  
 25  19  20  1   
 26  19  30  ar  
 27  21  22  1   
 28  21  23  1   
 29  21  24  1   
 30  21  30  1   
 31  24  25  1   
 32  24  26  1   
 33  24  27  1   
 34  27  28  ar  
 35  29  30  ar  
 36  31  32  1   
 37  31  33  1   
 38  31  42  1   
 39  33  34  1   
 40  33  35  1   
 41  33  36  1   
 42  36  37  1   
 43  36  38  1   
 44  39  40  1   
 45  39  41  1   
 46  39  42  1   
 47  42  43  1   
 48  42  44  1   
 49  45  46  1   
 50  45  47  1   
 51  45  48  1   
@<TRIPOS>SUBSTRUCTURE
  1 C7H  11 GROUP 4 A **** 0

# MOE 2022.02 (io_trps.svl 2020.11)
