# created with PyMOL 2.5.0
@<TRIPOS>MOLECULE
5AYF
22 25 1                 
SMALL
USER_CHARGES
@<TRIPOS>ATOM
1	   N	33.924	-3.531	15.549	N.3	1	C7H402	0.000	
2	  C1	40.761	-5.484	15.741	C.2	1	C7H402	0.000	
3	  C2	41.192	-4.644	14.718	C.2	1	C7H402	0.000	
4	  C3	40.317	-4.283	13.705	C.2	1	C7H402	0.000	
5	  C4	39.019	-4.768	13.728	C.2	1	C7H402	0.000	
6	  C5	37.157	-6.109	14.780	C.3	1	C7H402	0.000	
7	  C6	36.337	-8.165	13.569	C.2	1	C7H402	0.000	
8	  C7	36.186	-9.541	13.460	C.2	1	C7H402	0.000	
9	  C8	36.720	-10.364	14.444	C.2	1	C7H402	0.000	
10	  C9	37.391	-9.812	15.528	C.2	1	C7H402	0.000	
11	 C10	38.263	-7.915	16.828	C.3	1	C7H402	0.000	
12	 C11	39.074	-6.856	16.890	C.3	1	C7H402	0.000	
13	 C12	39.458	-5.969	15.762	C.2	1	C7H402	0.000	
14	 C13	38.571	-5.595	14.762	C.2	1	C7H402	0.000	
15	 C14	37.000	-7.602	14.666	C.2	1	C7H402	0.000	
16	 C15	37.545	-8.434	15.636	C.2	1	C7H402	0.000	
17	 C16	36.093	-5.270	14.891	C.3	1	C7H402	0.000	
18	 C17	36.276	-3.772	14.993	C.3	1	C7H402	0.000	
19	 C18	35.278	-3.170	15.972	C.3	1	C7H402	0.000	
20	 C19	33.748	-4.961	15.835	C.3	1	C7H402	0.000	
21	 C20	34.654	-5.769	14.901	C.3	1	C7H402	0.000	
22	 C21	32.943	-2.735	16.301	C.3	1	C7H402	0.000	
@<TRIPOS>BOND
1 1 19 1
2 1 20 1
3 1 22 1
4 2 3 ar
5 2 13 ar
6 3 4 ar
7 4 5 ar
8 5 14 ar
9 6 14 1
10 6 15 1
11 6 17 1
12 7 8 ar
13 7 15 ar
14 8 9 ar
15 9 10 ar
16 10 16 ar
17 11 12 1
18 11 16 1
19 12 13 1
20 13 14 ar
21 15 16 ar
22 17 18 1
23 17 21 1
24 18 19 1
25 20 21 1
@<TRIPOS>SUBSTRUCTURE
1	C7H402	1	GROUP	1 A	C7H
