@<TRIPOS>MOLECULE
5AYF.A
51 53 1 0 0 
SMALL
USER_CHARGES


@<TRIPOS>ATOM
  1 N       38.7640     2.5780    22.5090 N.4   1 SAM  -0.8530 
  2 H1      38.3227     2.9735    23.3269 H     1 SAM   0.4500 
  3 H2      39.7466     2.8116    22.5105 H     1 SAM   0.4500 
  4 H3      38.6567     1.5738    22.5209 H     1 SAM   0.4500 
  5 CA      38.1370     3.1200    21.3080 C.3   1 SAM   0.3170 
  6 HA      38.6254     2.6826    20.4372 H     1 SAM   0.0800 
  7 C       38.3120     4.6270    21.2780 C.2   1 SAM   0.9060 
  8 O       38.9110     5.1820    22.2000 O.co2 1 SAM  -0.9000 
  9 CB      36.6540     2.7500    21.2360 C.3   1 SAM  -0.1600 
 10 HB1     36.1512     3.4687    20.5888 H     1 SAM   0.0800 
 11 HB2     36.2352     2.8106    22.2405 H     1 SAM   0.0800 
 12 CG      36.3980     1.3570    20.6940 C.3   1 SAM  -0.1525 
 13 HG1     35.3371     1.1242    20.7857 H     1 SAM   0.0800 
 14 HG2     36.9793     0.6350    21.2675 H     1 SAM   0.0800 
 15 SD      36.8820     1.2660    18.9520 S.3   1 SAM   0.9775 
 16 CE      35.4800     0.3830    18.1920 C.3   1 SAM  -0.2325 
 17 HE1     34.6477     1.0732    18.0542 H     1 SAM   0.0800 
 18 HE2     35.1700    -0.4348    18.8425 H     1 SAM   0.0800 
 19 HE3     35.7840    -0.0173    17.2248 H     1 SAM   0.0800 
 20 C5'     37.9790    -0.1770    18.9960 C.3   1 SAM  -0.1525 
 21 H5'1    38.0176    -0.6097    17.9963 H     1 SAM   0.0800 
 22 H5'2    37.5610    -0.9051    19.6912 H     1 SAM   0.0800 
 23 C4'     39.4010     0.1440    19.4350 C.3   1 SAM   0.2000 
 24 H4'     39.6944     1.0683    18.9373 H     1 SAM   0.0800 
 25 O4'     39.4570     0.2800    20.8430 O.3   1 SAM  -0.5600 
 26 C3'     40.3480    -0.9900    19.0640 C.3   1 SAM   0.2000 
 27 H3'     39.8564    -1.9581    18.9680 H     1 SAM   0.0800 
 28 O3'     40.9480    -0.7610    17.8070 O.3   1 SAM  -0.6800 
 29 H3'     41.3948     0.0876    17.8489 H     1 SAM   0.4000 
 30 C2'     41.3610    -0.9450    20.1790 C.3   1 SAM   0.2000 
 31 H2'     41.8474    -1.9044    20.3551 H     1 SAM   0.0800 
 32 O2'     42.3070     0.0410    19.8600 O.3   1 SAM  -0.6800 
 33 H2'     42.7645    -0.2421    19.0650 H     1 SAM   0.4000 
 34 C1'     40.5740    -0.4170    21.3590 C.3   1 SAM   0.5691 
 35 H1'     41.2062     0.2270    21.9704 H     1 SAM   0.0800 
 36 OXT     37.8650     5.3130    20.3510 O.co2 1 SAM  -0.9000 
 37 N1      41.7380    -3.8610    25.1430 N.2   1 SAM  -0.6610 
 38 C2      42.5450    -2.8890    24.5980 C.2   1 SAM   0.6010 
 39 H2      43.5579    -2.7727    24.9542 H     1 SAM   0.0600 
 40 N3      42.0720    -2.0620    23.6010 N.2   1 SAM  -0.6610 
 41 C4      40.8020    -2.2050    23.1450 C.2   1 SAM   0.5000 
 42 C5      39.9690    -3.1800    23.6760 C.2   1 SAM   0.4500 
 43 C6      40.4470    -4.0110    24.6870 C.2   1 SAM   0.6110 
 44 N6      39.6770    -4.9530    25.2140 N.2   1 SAM  -0.2000 
 45 H62     40.0368    -5.5482    25.9464 H     1 SAM   0.4000 
 46 H61     38.7306    -5.0754    24.8831 H     1 SAM   0.4000 
 47 N7      38.7740    -3.0900    23.0450 N.2   1 SAM  -0.6960 
 48 C8      38.8350    -2.0980    22.1320 C.3   1 SAM   0.4551 
 49 H81     38.0800    -1.3446    22.3565 H     1 SAM   0.0800 
 50 H82     38.6585    -2.5037    21.1358 H     1 SAM   0.0800 
 51 N9      40.0850    -1.5320    22.1870 N.pl3 1 SAM  -0.7882 
@<TRIPOS>BOND
  1   1   2  1   
  2   1   3  1   
  3   1   4  1   
  4   1   5  1   
  5   5   6  1   
  6   5   7  1   
  7   5   9  1   
  8   7   8  ar  
  9   7  36  ar  
 10   9  10  1   
 11   9  11  1   
 12   9  12  1   
 13  12  13  1   
 14  12  14  1   
 15  12  15  1   
 16  15  16  1   
 17  15  20  1   
 18  16  17  1   
 19  16  18  1   
 20  16  19  1   
 21  20  21  1   
 22  20  22  1   
 23  20  23  1   
 24  23  24  1   
 25  23  25  1   
 26  23  26  1   
 27  25  34  1   
 28  26  27  1   
 29  26  28  1   
 30  26  30  1   
 31  28  29  1   
 32  30  31  1   
 33  30  32  1   
 34  30  34  1   
 35  32  33  1   
 36  34  35  1   
 37  34  51  1   
 38  37  38  2   
 39  37  43  1   
 40  38  39  1   
 41  38  40  1   
 42  40  41  2   
 43  41  42  1   
 44  41  51  1   
 45  42  43  1   
 46  42  47  2   
 47  43  44  2   
 48  44  45  1   
 49  44  46  1   
 50  47  48  1   
 51  48  49  1   
 52  48  50  1   
 53  48  51  1   
@<TRIPOS>SUBSTRUCTURE
  1 SAM  25 GROUP 4 A **** 0

# MOE 2022.02 (io_trps.svl 2020.11)
