# created with PyMOL 2.5.0
@<TRIPOS>MOLECULE
5AYF
27 29 1                 
SMALL
USER_CHARGES
@<TRIPOS>ATOM
1	   N	38.764	2.578	22.509	N.3	1	SAM401	0.000	
2	  CA	38.137	3.120	21.308	C.3	1	SAM401	0.000	
3	   C	38.312	4.627	21.278	C.2	1	SAM401	0.000	
4	   O	38.911	5.182	22.200	O.co2	1	SAM401	0.000	
5	  CB	36.654	2.750	21.236	C.3	1	SAM401	0.000	
6	  CG	36.398	1.357	20.694	C.3	1	SAM401	0.000	
7	  SD	36.882	1.266	18.952	S.3	1	SAM401	0.000	
8	  CE	35.480	0.383	18.192	C.3	1	SAM401	0.000	
9	 C5'	37.979	-0.177	18.996	C.3	1	SAM401	0.000	
10	 C4'	39.401	0.144	19.435	C.3	1	SAM401	0.000	
11	 O4'	39.457	0.280	20.843	O.3	1	SAM401	0.000	
12	 C3'	40.348	-0.990	19.064	C.3	1	SAM401	0.000	
13	 O3'	40.948	-0.761	17.807	O.3	1	SAM401	0.000	
14	 C2'	41.361	-0.945	20.179	C.3	1	SAM401	0.000	
15	 O2'	42.307	0.041	19.860	O.3	1	SAM401	0.000	
16	 C1'	40.574	-0.417	21.359	C.3	1	SAM401	0.000	
17	 OXT	37.865	5.313	20.351	O.co2	1	SAM401	0.000	
18	  N1	41.738	-3.861	25.143	N.2	1	SAM401	0.000	
19	  C2	42.545	-2.889	24.598	C.2	1	SAM401	0.000	
20	  N3	42.072	-2.062	23.601	N.2	1	SAM401	0.000	
21	  C4	40.802	-2.205	23.145	C.2	1	SAM401	0.000	
22	  C5	39.969	-3.180	23.676	C.2	1	SAM401	0.000	
23	  C6	40.447	-4.011	24.687	C.2	1	SAM401	0.000	
24	  N6	39.677	-4.953	25.214	N.pl3	1	SAM401	0.000	
25	  N7	38.774	-3.090	23.045	N.2	1	SAM401	0.000	
26	  C8	38.835	-2.098	22.132	C.2	1	SAM401	0.000	
27	  N9	40.085	-1.532	22.187	N.2	1	SAM401	0.000	
@<TRIPOS>BOND
1 1 2 1
2 2 3 1
3 2 5 1
4 3 4 ar
5 3 17 ar
6 5 6 1
7 6 7 1
8 7 8 1
9 7 9 1
10 9 10 1
11 10 11 1
12 10 12 1
13 11 16 1
14 12 13 1
15 12 14 1
16 14 15 1
17 14 16 1
18 16 27 1
19 18 19 ar
20 18 23 ar
21 19 20 ar
22 20 21 ar
23 21 22 ar
24 21 27 ar
25 22 23 ar
26 22 25 ar
27 23 24 1
28 25 26 ar
29 26 27 ar
@<TRIPOS>SUBSTRUCTURE
1	SAM401	1	GROUP	1 A	SAM
