# created with PyMOL 2.4.0
@<TRIPOS>MOLECULE
temp
50 52 1                 
SMALL
USER_CHARGES
@<TRIPOS>ATOM
1	   N	38.764	2.578	22.509	N.4	1	SAM1	0.000	
2	  CA	38.137	3.120	21.308	C.3	1	SAM1	0.000	
3	   C	38.312	4.627	21.278	C.2	1	SAM1	0.000	
4	   O	38.911	5.182	22.200	O.co2	1	SAM1	0.000	
5	  CB	36.654	2.750	21.236	C.3	1	SAM1	0.000	
6	  CG	36.398	1.357	20.694	C.3	1	SAM1	0.000	
7	  SD	36.882	1.266	18.952	S.3	1	SAM1	0.000	
8	  CE	35.480	0.383	18.192	C.3	1	SAM1	0.000	
9	 C5'	37.979	-0.177	18.996	C.3	1	SAM1	0.000	
10	 C4'	39.401	0.144	19.435	C.3	1	SAM1	0.000	
11	 O4'	39.457	0.280	20.843	O.3	1	SAM1	0.000	
12	 C3'	40.348	-0.990	19.064	C.3	1	SAM1	0.000	
13	 O3'	40.948	-0.761	17.807	O.3	1	SAM1	0.000	
14	 C2'	41.361	-0.945	20.179	C.3	1	SAM1	0.000	
15	 O2'	42.307	0.041	19.860	O.3	1	SAM1	0.000	
16	 C1'	40.574	-0.417	21.359	C.3	1	SAM1	0.000	
17	 OXT	37.865	5.313	20.351	O.co2	1	SAM1	0.000	
18	  N1	41.738	-3.861	25.143	N.2	1	SAM1	0.000	
19	  C2	42.545	-2.889	24.598	C.2	1	SAM1	0.000	
20	  N3	42.072	-2.062	23.601	N.2	1	SAM1	0.000	
21	  C4	40.802	-2.205	23.145	C.2	1	SAM1	0.000	
22	  C5	39.969	-3.180	23.676	C.2	1	SAM1	0.000	
23	  C6	40.447	-4.011	24.687	C.2	1	SAM1	0.000	
24	  N6	39.677	-4.953	25.214	N.pl3	1	SAM1	0.000	
25	  N7	38.774	-3.090	23.045	N.2	1	SAM1	0.000	
26	  C8	38.835	-2.098	22.132	C.2	1	SAM1	0.000	
27	  N9	40.085	-1.532	22.187	N.2	1	SAM1	0.000	
28	  HA	38.625	2.683	20.437	 H	1	SAM1	0.000	
29	 HB1	36.151	3.469	20.589	 H	1	SAM1	0.000	
30	 HB2	36.235	2.811	22.240	 H	1	SAM1	0.000	
31	 HG1	35.337	1.124	20.786	 H	1	SAM1	0.000	
32	 HG2	36.979	0.635	21.267	 H	1	SAM1	0.000	
33	 HE1	34.648	1.073	18.054	 H	1	SAM1	0.000	
34	 HE2	35.170	-0.435	18.843	 H	1	SAM1	0.000	
35	 HE3	35.784	-0.017	17.225	 H	1	SAM1	0.000	
36	  H1	38.323	2.974	23.327	 H	1	SAM1	0.000	
37	  H2	39.747	2.812	22.510	 H	1	SAM1	0.000	
38	  H2	43.558	-2.773	24.954	 H	1	SAM1	0.000	
39	  H3	38.657	1.574	22.521	 H	1	SAM1	0.000	
40	  H8	38.036	-1.800	21.470	 H	1	SAM1	0.000	
41	 H1'	41.206	0.227	21.970	 H	1	SAM1	0.000	
42	 H2'	41.847	-1.904	20.355	 H	1	SAM1	0.000	
43	 H2'	42.764	-0.242	19.065	 H	1	SAM1	0.000	
44	 H3'	39.856	-1.958	18.968	 H	1	SAM1	0.000	
45	 H3'	41.570	-1.475	17.648	 H	1	SAM1	0.000	
46	 H4'	39.694	1.068	18.937	 H	1	SAM1	0.000	
47	 H61	38.731	-5.075	24.883	 H	1	SAM1	0.000	
48	 H62	40.037	-5.548	25.946	 H	1	SAM1	0.000	
49	H5'1	38.018	-0.610	17.996	 H	1	SAM1	0.000	
50	H5'2	37.561	-0.905	19.691	 H	1	SAM1	0.000	
@<TRIPOS>BOND
1 1 2 1
2 1 36 1
3 1 37 1
4 1 39 1
5 2 3 1
6 2 5 1
7 2 28 1
8 3 4 ar
9 3 17 ar
10 5 6 1
11 5 29 1
12 5 30 1
13 6 7 1
14 6 31 1
15 6 32 1
16 7 8 1
17 7 9 1
18 8 33 1
19 8 34 1
20 8 35 1
21 9 10 1
22 9 49 1
23 9 50 1
24 10 11 1
25 10 12 1
26 10 46 1
27 11 16 1
28 12 13 1
29 12 14 1
30 12 44 1
31 13 45 1
32 14 15 1
33 14 16 1
34 14 42 1
35 15 43 1
36 16 27 1
37 16 41 1
38 18 19 ar
39 18 23 ar
40 19 20 ar
41 19 38 1
42 20 21 ar
43 21 22 ar
44 21 27 ar
45 22 23 ar
46 22 25 ar
47 23 24 1
48 24 47 1
49 24 48 1
50 25 26 ar
51 26 27 ar
52 26 40 1
@<TRIPOS>SUBSTRUCTURE
1	SAM1	1	GROUP	1 A	SAM
