# created with PyMOL 2.5.0
@<TRIPOS>MOLECULE
6YUH
29 31 1                 
SMALL
USER_CHARGES
@<TRIPOS>ATOM
1	  N1	19.111	-17.983	6.965	N.pl3	1	POW503	0.000	
2	  C2	19.513	-18.855	7.929	C.2	1	POW503	0.000	
3	  C3	19.574	-18.423	9.254	C.2	1	POW503	0.000	
4	  C4	19.996	-19.303	10.252	C.2	1	POW503	0.000	
5	  C5	20.348	-20.615	9.922	C.2	1	POW503	0.000	
6	  C6	20.295	-21.048	8.601	C.2	1	POW503	0.000	
7	  C7	19.882	-20.165	7.610	C.2	1	POW503	0.000	
8	  C8	18.104	-18.234	6.120	C.2	1	POW503	0.000	
9	  O9	17.706	-19.356	5.833	O.co2	1	POW503	0.000	
10	 O10	17.429	-17.105	5.492	O.3	1	POW503	0.000	
11	 C11	16.190	-17.370	4.831	C.3	1	POW503	0.000	
12	 C12	15.165	-16.249	5.004	C.3	1	POW503	0.000	
13	 O13	14.643	-16.083	6.335	O.3	1	POW503	0.000	
14	 C14	15.497	-16.335	7.489	C.2	1	POW503	0.000	
15	 O15	15.693	-17.495	7.836	O.co2	1	POW503	0.000	
16	 N16	15.995	-15.274	8.129	N.pl3	1	POW503	0.000	
17	 C17	15.993	-15.168	9.485	C.2	1	POW503	0.000	
18	 C18	15.500	-14.007	10.085	C.2	1	POW503	0.000	
19	 C19	15.507	-13.876	11.469	C.2	1	POW503	0.000	
20	 C20	16.003	-14.913	12.260	C.2	1	POW503	0.000	
21	 C21	16.493	-16.077	11.671	C.2	1	POW503	0.000	
22	 C22	16.498	-16.196	10.286	C.2	1	POW503	0.000	
23	 C23	13.969	-16.566	4.102	C.3	1	POW503	0.000	
24	 N24	12.918	-17.269	4.871	N.3	1	POW503	0.000	
25	 C25	12.890	-18.706	4.535	C.3	1	POW503	0.000	
26	 C26	11.919	-19.435	5.465	C.3	1	POW503	0.000	
27	 C27	10.567	-18.732	5.519	C.3	1	POW503	0.000	
28	 C28	10.473	-17.635	4.464	C.3	1	POW503	0.000	
29	 C29	11.610	-16.626	4.620	C.3	1	POW503	0.000	
@<TRIPOS>BOND
1 1 2 1
2 1 8 1
3 2 3 ar
4 2 7 ar
5 3 4 ar
6 4 5 ar
7 5 6 ar
8 6 7 ar
9 8 9 2
10 8 10 1
11 10 11 1
12 11 12 1
13 12 13 1
14 12 23 1
15 13 14 1
16 14 15 2
17 14 16 1
18 16 17 1
19 17 18 ar
20 17 22 ar
21 18 19 ar
22 19 20 ar
23 20 21 ar
24 21 22 ar
25 23 24 1
26 24 25 1
27 24 29 1
28 25 26 1
29 26 27 1
30 27 28 1
31 28 29 1
@<TRIPOS>SUBSTRUCTURE
1	POW503	1	GROUP	1 A	POW
