@<TRIPOS>MOLECULE
6YUH.A
57 59 1 0 0 
SMALL
USER_CHARGES


@<TRIPOS>ATOM
  1 N1      19.1110   -17.9830     6.9650 N.am  1 POW  -0.5470 
  2 H1      19.5972   -17.1016     6.8830 H     1 POW   0.3700 
  3 C2      19.5130   -18.8550     7.9290 C.ar  1 POW   0.1170 
  4 C3      19.5740   -18.4230     9.2540 C.ar  1 POW  -0.1500 
  5 H3      19.2955   -17.4106     9.5069 H     1 POW   0.1500 
  6 C4      19.9960   -19.3030    10.2520 C.ar  1 POW  -0.1500 
  7 H4      20.0505   -18.9706    11.2781 H     1 POW   0.1500 
  8 C5      20.3480   -20.6150     9.9220 C.ar  1 POW  -0.1500 
  9 H5      20.6632   -21.2971    10.6978 H     1 POW   0.1500 
 10 C6      20.2950   -21.0480     8.6010 C.ar  1 POW  -0.1500 
 11 H6      20.5721   -22.0607     8.3478 H     1 POW   0.1500 
 12 C7      19.8820   -20.1650     7.6100 C.ar  1 POW  -0.1500 
 13 H7      19.8458   -20.4947     6.5822 H     1 POW   0.1500 
 14 C8      18.1040   -18.2340     6.1200 C.2   1 POW   0.7800 
 15 O9      17.7060   -19.3560     5.8330 O.2   1 POW  -0.5700 
 16 O10     17.4290   -17.1050     5.4920 O.3   1 POW  -0.4300 
 17 C11     16.1900   -17.3700     4.8310 C.3   1 POW   0.1200 
 18 H111    15.7698   -18.2898     5.2378 H     1 POW   0.0800 
 19 H112    16.3857   -17.4996     3.7666 H     1 POW   0.0800 
 20 C12     15.1650   -16.2490     5.0040 C.3   1 POW   0.2000 
 21 H12     15.6932   -15.3284     4.7557 H     1 POW   0.0800 
 22 O13     14.6430   -16.0830     6.3350 O.3   1 POW  -0.4300 
 23 C14     15.4970   -16.3350     7.4890 C.2   1 POW   0.7800 
 24 O15     15.6930   -17.4950     7.8360 O.2   1 POW  -0.5700 
 25 N16     15.9950   -15.2740     8.1290 N.am  1 POW  -0.5470 
 26 H16     16.3889   -14.5201     7.5844 H     1 POW   0.3700 
 27 C17     15.9930   -15.1680     9.4850 C.ar  1 POW   0.1170 
 28 C18     15.5000   -14.0070    10.0850 C.ar  1 POW  -0.1500 
 29 H18     15.1117   -13.2077     9.4712 H     1 POW   0.1500 
 30 C19     15.5070   -13.8760    11.4690 C.ar  1 POW  -0.1500 
 31 H19     15.1300   -12.9751    11.9302 H     1 POW   0.1500 
 32 C20     16.0030   -14.9130    12.2600 C.ar  1 POW  -0.1500 
 33 H20     16.0072   -14.8129    13.3353 H     1 POW   0.1500 
 34 C21     16.4930   -16.0770    11.6710 C.ar  1 POW  -0.1500 
 35 H21     16.8666   -16.8818    12.2868 H     1 POW   0.1500 
 36 C22     16.4980   -16.1960    10.2860 C.ar  1 POW  -0.1500 
 37 H22     16.8948   -17.0889     9.8258 H     1 POW   0.1500 
 38 C23     13.9690   -16.5660     4.1020 C.3   1 POW   0.3430 
 39 H231    14.2976   -17.2006     3.2789 H     1 POW   0.0800 
 40 H232    13.5623   -15.6363     3.7040 H     1 POW   0.0800 
 41 N24     12.9180   -17.2690     4.8710 N.4   1 POW  -0.9590 
 42 H24     13.1258   -17.2004     5.8570 H     1 POW   0.4500 
 43 C25     12.8900   -18.7060     4.5350 C.3   1 POW   0.3430 
 44 H251    13.8891   -19.1253     4.6539 H     1 POW   0.0800 
 45 H252    12.5644   -18.8302     3.5022 H     1 POW   0.0800 
 46 C26     11.9190   -19.4350     5.4650 C.3   1 POW  -0.1600 
 47 H261    12.3437   -19.4647     6.4684 H     1 POW   0.0800 
 48 H262    11.7755   -20.4524     5.1010 H     1 POW   0.0800 
 49 C27     10.5670   -18.7320     5.5190 C.3   1 POW  -0.1600 
 50 H271    10.4363   -18.2882     6.5059 H     1 POW   0.0800 
 51 H272     9.7786   -19.4636     5.3423 H     1 POW   0.0800 
 52 C28     10.4730   -17.6350     4.4640 C.3   1 POW  -0.1600 
 53 H281     9.5198   -17.1174     4.5720 H     1 POW   0.0800 
 54 H282    10.5309   -18.0869     3.4738 H     1 POW   0.0800 
 55 C29     11.6100   -16.6260     4.6200 C.3   1 POW   0.3430 
 56 H291    11.6812   -16.0377     3.7052 H     1 POW   0.0800 
 57 H292    11.3791   -15.9682     5.4579 H     1 POW   0.0800 
@<TRIPOS>BOND
  1   1   2  1   
  2   1   3  1   
  3   1  14  am  
  4   3   4  ar  
  5   3  12  ar  
  6   4   5  1   
  7   4   6  ar  
  8   6   7  1   
  9   6   8  ar  
 10   8   9  1   
 11   8  10  ar  
 12  10  11  1   
 13  10  12  ar  
 14  12  13  1   
 15  14  15  2   
 16  14  16  1   
 17  16  17  1   
 18  17  18  1   
 19  17  19  1   
 20  17  20  1   
 21  20  21  1   
 22  20  22  1   
 23  20  38  1   
 24  22  23  1   
 25  23  24  2   
 26  23  25  am  
 27  25  26  1   
 28  25  27  1   
 29  27  28  ar  
 30  27  36  ar  
 31  28  29  1   
 32  28  30  ar  
 33  30  31  1   
 34  30  32  ar  
 35  32  33  1   
 36  32  34  ar  
 37  34  35  1   
 38  34  36  ar  
 39  36  37  1   
 40  38  39  1   
 41  38  40  1   
 42  38  41  1   
 43  41  42  1   
 44  41  43  1   
 45  41  55  1   
 46  43  44  1   
 47  43  45  1   
 48  43  46  1   
 49  46  47  1   
 50  46  48  1   
 51  46  49  1   
 52  49  50  1   
 53  49  51  1   
 54  49  52  1   
 55  52  53  1   
 56  52  54  1   
 57  52  55  1   
 58  55  56  1   
 59  55  57  1   
@<TRIPOS>SUBSTRUCTURE
  1 POW  24 GROUP 4 A **** 0

# MOE 2022.02 (io_trps.svl 2020.11)
