# created with PyMOL 2.4.0
@<TRIPOS>MOLECULE
temp
50 52 1                 
SMALL
USER_CHARGES
@<TRIPOS>ATOM
1	   N	10.280	14.849	23.526	N.4	1	SAM1	0.000	
2	  CA	10.143	14.840	22.075	C.3	1	SAM1	0.000	
3	   C	9.130	15.883	21.598	C.2	1	SAM1	0.000	
4	   O	8.693	16.754	22.371	O.co2	1	SAM1	0.000	
5	  CB	9.742	13.444	21.602	C.3	1	SAM1	0.000	
6	  CG	10.919	12.490	21.374	C.3	1	SAM1	0.000	
7	  SD	11.871	12.981	19.908	S.3	1	SAM1	0.000	
8	  CE	11.925	11.450	18.966	C.3	1	SAM1	0.000	
9	 C5'	13.583	13.026	20.505	C.3	1	SAM1	0.000	
10	 C4'	13.880	14.280	21.311	C.3	1	SAM1	0.000	
11	 O4'	13.222	14.204	22.573	O.3	1	SAM1	0.000	
12	 C3'	15.363	14.450	21.634	C.3	1	SAM1	0.000	
13	 O3'	16.092	15.087	20.604	O.3	1	SAM1	0.000	
14	 C2'	15.307	15.262	22.908	C.3	1	SAM1	0.000	
15	 O2'	14.982	16.601	22.602	O.3	1	SAM1	0.000	
16	 C1'	14.079	14.690	23.595	C.3	1	SAM1	0.000	
17	 OXT	8.742	15.875	20.422	O.co2	1	SAM1	0.000	
18	  N1	15.873	13.025	28.284	N.2	1	SAM1	0.000	
19	  C2	15.777	14.325	27.827	C.2	1	SAM1	0.000	
20	  N3	15.291	14.588	26.559	N.2	1	SAM1	0.000	
21	  C4	14.887	13.575	25.752	C.2	1	SAM1	0.000	
22	  C5	14.980	12.263	26.190	C.2	1	SAM1	0.000	
23	  C6	15.473	11.987	27.470	C.2	1	SAM1	0.000	
24	  N6	15.558	10.743	27.934	N.pl3	1	SAM1	0.000	
25	  N7	14.513	11.472	25.199	N.2	1	SAM1	0.000	
26	  C8	14.141	12.238	24.158	C.2	1	SAM1	0.000	
27	  N9	14.374	13.548	24.476	N.2	1	SAM1	0.000	
28	  HA	11.108	15.103	21.640	 H	1	SAM1	0.000	
29	 HB1	9.199	13.545	20.663	 H	1	SAM1	0.000	
30	 HB2	9.088	13.004	22.354	 H	1	SAM1	0.000	
31	 HG1	10.537	11.479	21.230	 H	1	SAM1	0.000	
32	 HG2	11.571	12.511	22.247	 H	1	SAM1	0.000	
33	 HE1	10.947	11.261	18.523	 H	1	SAM1	0.000	
34	 HE2	12.189	10.625	19.628	 H	1	SAM1	0.000	
35	 HE3	12.671	11.535	18.176	 H	1	SAM1	0.000	
36	  H1	9.395	14.608	23.949	 H	1	SAM1	0.000	
37	  H2	10.559	15.770	23.832	 H	1	SAM1	0.000	
38	  H2	16.083	15.142	28.464	 H	1	SAM1	0.000	
39	  H3	10.980	14.175	23.802	 H	1	SAM1	0.000	
40	  H8	13.728	11.879	23.227	 H	1	SAM1	0.000	
41	 H1'	13.647	15.481	24.207	 H	1	SAM1	0.000	
42	 H2'	16.239	15.229	23.473	 H	1	SAM1	0.000	
43	 H2'	15.701	16.962	22.079	 H	1	SAM1	0.000	
44	 H3'	15.894	13.504	21.739	 H	1	SAM1	0.000	
45	 H3'	16.998	15.184	20.907	 H	1	SAM1	0.000	
46	 H4'	13.539	15.113	20.696	 H	1	SAM1	0.000	
47	 H61	15.262	9.968	27.358	 H	1	SAM1	0.000	
48	 H62	15.918	10.574	28.862	 H	1	SAM1	0.000	
49	H5'1	14.254	12.994	19.647	 H	1	SAM1	0.000	
50	H5'2	13.757	12.154	21.136	 H	1	SAM1	0.000	
@<TRIPOS>BOND
1 1 2 1
2 1 36 1
3 1 37 1
4 1 39 1
5 2 3 1
6 2 5 1
7 2 28 1
8 3 4 ar
9 3 17 ar
10 5 6 1
11 5 29 1
12 5 30 1
13 6 7 1
14 6 31 1
15 6 32 1
16 7 8 1
17 7 9 1
18 8 33 1
19 8 34 1
20 8 35 1
21 9 10 1
22 9 49 1
23 9 50 1
24 10 11 1
25 10 12 1
26 10 46 1
27 11 16 1
28 12 13 1
29 12 14 1
30 12 44 1
31 13 45 1
32 14 15 1
33 14 16 1
34 14 42 1
35 15 43 1
36 16 27 1
37 16 41 1
38 18 19 ar
39 18 23 ar
40 19 20 ar
41 19 38 1
42 20 21 ar
43 21 22 ar
44 21 27 ar
45 22 23 ar
46 22 25 ar
47 23 24 1
48 24 47 1
49 24 48 1
50 25 26 ar
51 26 27 ar
52 26 40 1
@<TRIPOS>SUBSTRUCTURE
1	SAM1	1	GROUP	1 A	SAM
