@<TRIPOS>MOLECULE
6YUH.A
51 53 1 0 0 
SMALL
USER_CHARGES


@<TRIPOS>ATOM
  1 N       10.2800    14.8490    23.5260 N.4   1 SAM  -0.8530 
  2 H1       9.3953    14.6077    23.9492 H     1 SAM   0.4500 
  3 H2      10.5595    15.7700    23.8321 H     1 SAM   0.4500 
  4 H3      10.9802    14.1755    23.8022 H     1 SAM   0.4500 
  5 CA      10.1430    14.8400    22.0750 C.3   1 SAM   0.3170 
  6 HA      11.1075    15.1026    21.6404 H     1 SAM   0.0800 
  7 C        9.1300    15.8830    21.5980 C.2   1 SAM   0.9060 
  8 O        8.6930    16.7540    22.3710 O.co2 1 SAM  -0.9000 
  9 CB       9.7420    13.4440    21.6020 C.3   1 SAM  -0.1600 
 10 HB1      9.1986    13.5455    20.6626 H     1 SAM   0.0800 
 11 HB2      9.0876    13.0041    22.3545 H     1 SAM   0.0800 
 12 CG      10.9190    12.4900    21.3740 C.3   1 SAM  -0.1525 
 13 HG1     10.5373    11.4792    21.2303 H     1 SAM   0.0800 
 14 HG2     11.5709    12.5114    22.2473 H     1 SAM   0.0800 
 15 SD      11.8710    12.9810    19.9080 S.3   1 SAM   0.9775 
 16 CE      11.9250    11.4500    18.9660 C.3   1 SAM  -0.2325 
 17 HE1     10.9472    11.2614    18.5229 H     1 SAM   0.0800 
 18 HE2     12.1891    10.6253    19.6279 H     1 SAM   0.0800 
 19 HE3     12.6714    11.5354    18.1763 H     1 SAM   0.0800 
 20 C5'     13.5830    13.0260    20.5050 C.3   1 SAM  -0.1525 
 21 H5'1    14.2544    12.9936    19.6470 H     1 SAM   0.0800 
 22 H5'2    13.7573    12.1544    21.1358 H     1 SAM   0.0800 
 23 C4'     13.8800    14.2800    21.3110 C.3   1 SAM   0.2000 
 24 H4'     13.5391    15.1127    20.6958 H     1 SAM   0.0800 
 25 O4'     13.2220    14.2040    22.5730 O.3   1 SAM  -0.5600 
 26 C3'     15.3630    14.4500    21.6340 C.3   1 SAM   0.2000 
 27 H3'     15.8944    13.5041    21.7392 H     1 SAM   0.0800 
 28 O3'     16.0920    15.0870    20.6040 O.3   1 SAM  -0.6800 
 29 H3'     16.9978    15.1842    20.9068 H     1 SAM   0.4000 
 30 C2'     15.3070    15.2620    22.9080 C.3   1 SAM   0.2000 
 31 H2'     16.2387    15.2295    23.4728 H     1 SAM   0.0800 
 32 O2'     14.9820    16.6010    22.6020 O.3   1 SAM  -0.6800 
 33 H2'     15.7012    16.9619    22.0785 H     1 SAM   0.4000 
 34 C1'     14.0790    14.6900    23.5950 C.3   1 SAM   0.5691 
 35 H1'     13.6466    15.4813    24.2074 H     1 SAM   0.0800 
 36 OXT      8.7420    15.8750    20.4220 O.co2 1 SAM  -0.9000 
 37 N1      15.8730    13.0250    28.2840 N.2   1 SAM  -0.6610 
 38 C2      15.7770    14.3250    27.8270 C.2   1 SAM   0.6010 
 39 H2      16.0835    15.1415    28.4640 H     1 SAM   0.0600 
 40 N3      15.2910    14.5880    26.5590 N.2   1 SAM  -0.6610 
 41 C4      14.8870    13.5750    25.7520 C.2   1 SAM   0.5000 
 42 C5      14.9800    12.2630    26.1900 C.2   1 SAM   0.4500 
 43 C6      15.4730    11.9870    27.4700 C.2   1 SAM   0.6110 
 44 N6      15.5580    10.7430    27.9340 N.2   1 SAM  -0.2000 
 45 H62     15.9181    10.5738    28.8623 H     1 SAM   0.4000 
 46 H61     15.2624     9.9678    27.3579 H     1 SAM   0.4000 
 47 N7      14.5130    11.4720    25.1990 N.2   1 SAM  -0.6960 
 48 C8      14.1410    12.2380    24.1580 C.3   1 SAM   0.4551 
 49 H81     13.0800    12.0923    23.9553 H     1 SAM   0.0800 
 50 H82     14.7203    11.9655    23.2758 H     1 SAM   0.0800 
 51 N9      14.3740    13.5480    24.4760 N.pl3 1 SAM  -0.7882 
@<TRIPOS>BOND
  1   1   2  1   
  2   1   3  1   
  3   1   4  1   
  4   1   5  1   
  5   5   6  1   
  6   5   7  1   
  7   5   9  1   
  8   7   8  ar  
  9   7  36  ar  
 10   9  10  1   
 11   9  11  1   
 12   9  12  1   
 13  12  13  1   
 14  12  14  1   
 15  12  15  1   
 16  15  16  1   
 17  15  20  1   
 18  16  17  1   
 19  16  18  1   
 20  16  19  1   
 21  20  21  1   
 22  20  22  1   
 23  20  23  1   
 24  23  24  1   
 25  23  25  1   
 26  23  26  1   
 27  25  34  1   
 28  26  27  1   
 29  26  28  1   
 30  26  30  1   
 31  28  29  1   
 32  30  31  1   
 33  30  32  1   
 34  30  34  1   
 35  32  33  1   
 36  34  35  1   
 37  34  51  1   
 38  37  38  2   
 39  37  43  1   
 40  38  39  1   
 41  38  40  1   
 42  40  41  2   
 43  41  42  1   
 44  41  51  1   
 45  42  43  1   
 46  42  47  2   
 47  43  44  2   
 48  44  45  1   
 49  44  46  1   
 50  47  48  1   
 51  48  49  1   
 52  48  50  1   
 53  48  51  1   
@<TRIPOS>SUBSTRUCTURE
  1 SAM  25 GROUP 4 A **** 0

# MOE 2022.02 (io_trps.svl 2020.11)
