# created with PyMOL 2.5.0
@<TRIPOS>MOLECULE
6YUH
27 29 1                 
SMALL
USER_CHARGES
@<TRIPOS>ATOM
1	   N	10.280	14.849	23.526	N.3	1	SAM501	0.000	
2	  CA	10.143	14.840	22.075	C.3	1	SAM501	0.000	
3	   C	9.130	15.883	21.598	C.2	1	SAM501	0.000	
4	   O	8.693	16.754	22.371	O.co2	1	SAM501	0.000	
5	  CB	9.742	13.444	21.602	C.3	1	SAM501	0.000	
6	  CG	10.919	12.490	21.374	C.3	1	SAM501	0.000	
7	  SD	11.871	12.981	19.908	S.3	1	SAM501	0.000	
8	  CE	11.925	11.450	18.966	C.3	1	SAM501	0.000	
9	 C5'	13.583	13.026	20.505	C.3	1	SAM501	0.000	
10	 C4'	13.880	14.280	21.311	C.3	1	SAM501	0.000	
11	 O4'	13.222	14.204	22.573	O.3	1	SAM501	0.000	
12	 C3'	15.363	14.450	21.634	C.3	1	SAM501	0.000	
13	 O3'	16.092	15.087	20.604	O.3	1	SAM501	0.000	
14	 C2'	15.307	15.262	22.908	C.3	1	SAM501	0.000	
15	 O2'	14.982	16.601	22.602	O.3	1	SAM501	0.000	
16	 C1'	14.079	14.690	23.595	C.3	1	SAM501	0.000	
17	 OXT	8.742	15.875	20.422	O.co2	1	SAM501	0.000	
18	  N1	15.873	13.025	28.284	N.2	1	SAM501	0.000	
19	  C2	15.777	14.325	27.827	C.2	1	SAM501	0.000	
20	  N3	15.291	14.588	26.559	N.2	1	SAM501	0.000	
21	  C4	14.887	13.575	25.752	C.2	1	SAM501	0.000	
22	  C5	14.980	12.263	26.190	C.2	1	SAM501	0.000	
23	  C6	15.473	11.987	27.470	C.2	1	SAM501	0.000	
24	  N6	15.558	10.743	27.934	N.pl3	1	SAM501	0.000	
25	  N7	14.513	11.472	25.199	N.2	1	SAM501	0.000	
26	  C8	14.141	12.238	24.158	C.2	1	SAM501	0.000	
27	  N9	14.374	13.548	24.476	N.2	1	SAM501	0.000	
@<TRIPOS>BOND
1 1 2 1
2 2 3 1
3 2 5 1
4 3 4 ar
5 3 17 ar
6 5 6 1
7 6 7 1
8 7 8 1
9 7 9 1
10 9 10 1
11 10 11 1
12 10 12 1
13 11 16 1
14 12 13 1
15 12 14 1
16 14 15 1
17 14 16 1
18 16 27 1
19 18 19 ar
20 18 23 ar
21 19 20 ar
22 20 21 ar
23 21 22 ar
24 21 27 ar
25 22 23 ar
26 22 25 ar
27 23 24 1
28 25 26 ar
29 26 27 ar
@<TRIPOS>SUBSTRUCTURE
1	SAM501	1	GROUP	1 A	SAM
