@<TRIPOS>MOLECULE
4FZV.A
51 53 1 0 0 
SMALL
USER_CHARGES


@<TRIPOS>ATOM
  1 N       85.7470     3.5510    21.2400 N.4   1 SAM  -0.8530 
  2 H1      86.0654     4.4581    20.9302 H     1 SAM   0.4500 
  3 H2      85.1147     3.6642    22.0194 H     1 SAM   0.4500 
  4 H3      85.2677     3.0856    20.4825 H     1 SAM   0.4500 
  5 CA      86.9620     2.7010    21.6810 C.3   1 SAM   0.3170 
  6 HA      86.5290     1.7514    21.9954 H     1 SAM   0.0800 
  7 C       87.7120     3.4610    22.7530 C.2   1 SAM   0.9060 
  8 O       87.6340     4.7000    22.8630 O.co2 1 SAM  -0.9000 
  9 CB      88.0010     2.4010    20.6010 C.3   1 SAM  -0.1600 
 10 HB1     88.8174     1.7985    20.9993 H     1 SAM   0.0800 
 11 HB2     88.4022     3.3215    20.1769 H     1 SAM   0.0800 
 12 CG      87.1970     1.6180    19.5570 C.3   1 SAM  -0.1525 
 13 HG1     86.4892     2.2917    19.0741 H     1 SAM   0.0800 
 14 HG2     86.6529     0.8156    20.0551 H     1 SAM   0.0800 
 15 SD      88.2860     0.9020    18.2980 S.3   1 SAM   0.9775 
 16 CE      89.0380     2.2610    17.3740 C.3   1 SAM  -0.2325 
 17 HE1     89.7452     2.7882    18.0143 H     1 SAM   0.0800 
 18 HE2     88.2607     2.9511    17.0458 H     1 SAM   0.0800 
 19 HE3     89.5616     1.8634    16.5046 H     1 SAM   0.0800 
 20 C5'     87.1480     0.1560    17.0620 C.3   1 SAM  -0.1525 
 21 H5'1    87.7196    -0.1235    16.1770 H     1 SAM   0.0800 
 22 H5'2    86.3907     0.8907    16.7884 H     1 SAM   0.0800 
 23 C4'     86.4500    -1.0980    17.6250 C.3   1 SAM   0.2000 
 24 H4'     86.0026    -0.7526    18.5570 H     1 SAM   0.0800 
 25 O4'     85.5060    -1.6020    16.6630 O.3   1 SAM  -0.5600 
 26 C3'     87.3800    -2.2880    17.9340 C.3   1 SAM   0.2000 
 27 H3'     88.4100    -2.1516    17.6044 H     1 SAM   0.0800 
 28 O3'     87.3750    -2.4760    19.3620 O.3   1 SAM  -0.6800 
 29 H3'     87.9005    -3.2562    19.5539 H     1 SAM   0.4000 
 30 C2'     86.7210    -3.4890    17.2240 C.3   1 SAM   0.2000 
 31 H2'     87.3467    -3.7900    16.3837 H     1 SAM   0.0800 
 32 O2'     86.5130    -4.6360    18.0510 O.3   1 SAM  -0.6800 
 33 H2'     85.9618    -4.3656    18.7890 H     1 SAM   0.4000 
 34 C1'     85.2940    -2.9740    16.9580 C.3   1 SAM   0.5691 
 35 H1'     84.6892    -3.2508    17.8215 H     1 SAM   0.0800 
 36 OXT     88.3980     2.8290    23.5230 O.co2 1 SAM  -0.9000 
 37 N1      80.5550    -3.9720    15.2530 N.2   1 SAM  -0.6610 
 38 C2      80.8960    -3.4530    16.4750 C.2   1 SAM   0.6010 
 39 H2      80.1450    -3.1716    17.1983 H     1 SAM   0.0600 
 40 N3      82.2380    -3.3070    16.7380 N.2   1 SAM  -0.6610 
 41 C4      83.1890    -3.5950    15.7950 C.2   1 SAM   0.5000 
 42 C5      82.8360    -4.0990    14.5550 C.2   1 SAM   0.4500 
 43 C6      81.4830    -4.2990    14.3000 C.2   1 SAM   0.6110 
 44 N6      81.0340    -4.7940    13.1150 N.2   1 SAM  -0.2000 
 45 H62     80.0439    -4.9259    12.9655 H     1 SAM   0.4000 
 46 H61     81.6908    -5.0296    12.3848 H     1 SAM   0.4000 
 47 N7      83.9870    -4.2930    13.8340 N.2   1 SAM  -0.6960 
 48 C8      85.0620    -3.9480    14.5700 C.3   1 SAM   0.4551 
 49 H81     85.6107    -3.1397    14.0866 H     1 SAM   0.0800 
 50 H82     85.7218    -4.8051    14.7051 H     1 SAM   0.0800 
 51 N9      84.5490    -3.5210    15.8120 N.pl3 1 SAM  -0.7882 
@<TRIPOS>BOND
  1   1   2  1   
  2   1   3  1   
  3   1   4  1   
  4   1   5  1   
  5   5   6  1   
  6   5   7  1   
  7   5   9  1   
  8   7   8  ar  
  9   7  36  ar  
 10   9  10  1   
 11   9  11  1   
 12   9  12  1   
 13  12  13  1   
 14  12  14  1   
 15  12  15  1   
 16  15  16  1   
 17  15  20  1   
 18  16  17  1   
 19  16  18  1   
 20  16  19  1   
 21  20  21  1   
 22  20  22  1   
 23  20  23  1   
 24  23  24  1   
 25  23  25  1   
 26  23  26  1   
 27  25  34  1   
 28  26  27  1   
 29  26  28  1   
 30  26  30  1   
 31  28  29  1   
 32  30  31  1   
 33  30  32  1   
 34  30  34  1   
 35  32  33  1   
 36  34  35  1   
 37  34  51  1   
 38  37  38  2   
 39  37  43  1   
 40  38  39  1   
 41  38  40  1   
 42  40  41  2   
 43  41  42  1   
 44  41  51  1   
 45  42  43  1   
 46  42  47  2   
 47  43  44  2   
 48  44  45  1   
 49  44  46  1   
 50  47  48  1   
 51  48  49  1   
 52  48  50  1   
 53  48  51  1   
@<TRIPOS>SUBSTRUCTURE
  1 SAM  23 GROUP 4 A **** 0

# MOE 2022.02 (io_trps.svl 2020.11)
