# created with PyMOL 2.4.0
@<TRIPOS>MOLECULE
temp
50 52 1                 
SMALL
USER_CHARGES
@<TRIPOS>ATOM
1	   N	85.747	3.551	21.240	N.4	1	SAM1	0.000	
2	  CA	86.962	2.701	21.681	C.3	1	SAM1	0.000	
3	   C	87.712	3.461	22.753	C.2	1	SAM1	0.000	
4	   O	87.634	4.700	22.863	O.co2	1	SAM1	0.000	
5	  CB	88.001	2.401	20.601	C.3	1	SAM1	0.000	
6	  CG	87.197	1.618	19.557	C.3	1	SAM1	0.000	
7	  SD	88.286	0.902	18.298	S.3	1	SAM1	0.000	
8	  CE	89.038	2.261	17.374	C.3	1	SAM1	0.000	
9	 C5'	87.148	0.156	17.062	C.3	1	SAM1	0.000	
10	 C4'	86.450	-1.098	17.625	C.3	1	SAM1	0.000	
11	 O4'	85.506	-1.602	16.663	O.3	1	SAM1	0.000	
12	 C3'	87.380	-2.288	17.934	C.3	1	SAM1	0.000	
13	 O3'	87.375	-2.476	19.362	O.3	1	SAM1	0.000	
14	 C2'	86.721	-3.489	17.224	C.3	1	SAM1	0.000	
15	 O2'	86.513	-4.636	18.051	O.3	1	SAM1	0.000	
16	 C1'	85.294	-2.974	16.958	C.3	1	SAM1	0.000	
17	 OXT	88.398	2.829	23.523	O.co2	1	SAM1	0.000	
18	  N1	80.555	-3.972	15.253	N.2	1	SAM1	0.000	
19	  C2	80.896	-3.453	16.475	C.2	1	SAM1	0.000	
20	  N3	82.238	-3.307	16.738	N.2	1	SAM1	0.000	
21	  C4	83.189	-3.595	15.795	C.2	1	SAM1	0.000	
22	  C5	82.836	-4.099	14.555	C.2	1	SAM1	0.000	
23	  C6	81.483	-4.299	14.300	C.2	1	SAM1	0.000	
24	  N6	81.034	-4.794	13.115	N.pl3	1	SAM1	0.000	
25	  N7	83.987	-4.293	13.834	N.2	1	SAM1	0.000	
26	  C8	85.062	-3.948	14.570	C.2	1	SAM1	0.000	
27	  N9	84.549	-3.521	15.812	N.2	1	SAM1	0.000	
28	  HA	86.529	1.751	21.995	 H	1	SAM1	0.000	
29	 HB1	88.817	1.798	20.999	 H	1	SAM1	0.000	
30	 HB2	88.402	3.322	20.177	 H	1	SAM1	0.000	
31	 HG1	86.489	2.292	19.074	 H	1	SAM1	0.000	
32	 HG2	86.653	0.816	20.055	 H	1	SAM1	0.000	
33	 HE1	89.745	2.788	18.014	 H	1	SAM1	0.000	
34	 HE2	88.261	2.951	17.046	 H	1	SAM1	0.000	
35	 HE3	89.562	1.863	16.505	 H	1	SAM1	0.000	
36	  H1	86.065	4.458	20.930	 H	1	SAM1	0.000	
37	  H2	85.115	3.664	22.019	 H	1	SAM1	0.000	
38	  H2	80.145	-3.172	17.198	 H	1	SAM1	0.000	
39	  H3	85.268	3.086	20.483	 H	1	SAM1	0.000	
40	  H8	86.099	-3.990	14.271	 H	1	SAM1	0.000	
41	 H1'	84.689	-3.251	17.822	 H	1	SAM1	0.000	
42	 H2'	87.347	-3.790	16.384	 H	1	SAM1	0.000	
43	 H2'	87.373	-4.938	18.351	 H	1	SAM1	0.000	
44	 H3'	88.410	-2.152	17.604	 H	1	SAM1	0.000	
45	 H3'	87.900	-3.256	19.554	 H	1	SAM1	0.000	
46	 H4'	86.003	-0.753	18.557	 H	1	SAM1	0.000	
47	 H61	81.691	-5.030	12.385	 H	1	SAM1	0.000	
48	 H62	80.044	-4.926	12.965	 H	1	SAM1	0.000	
49	H5'1	87.720	-0.123	16.177	 H	1	SAM1	0.000	
50	H5'2	86.391	0.891	16.788	 H	1	SAM1	0.000	
@<TRIPOS>BOND
1 1 2 1
2 1 36 1
3 1 37 1
4 1 39 1
5 2 3 1
6 2 5 1
7 2 28 1
8 3 4 ar
9 3 17 ar
10 5 6 1
11 5 29 1
12 5 30 1
13 6 7 1
14 6 31 1
15 6 32 1
16 7 8 1
17 7 9 1
18 8 33 1
19 8 34 1
20 8 35 1
21 9 10 1
22 9 49 1
23 9 50 1
24 10 11 1
25 10 12 1
26 10 46 1
27 11 16 1
28 12 13 1
29 12 14 1
30 12 44 1
31 13 45 1
32 14 15 1
33 14 16 1
34 14 42 1
35 15 43 1
36 16 27 1
37 16 41 1
38 18 19 ar
39 18 23 ar
40 19 20 ar
41 19 38 1
42 20 21 ar
43 21 22 ar
44 21 27 ar
45 22 23 ar
46 22 25 ar
47 23 24 1
48 24 47 1
49 24 48 1
50 25 26 ar
51 26 27 ar
52 26 40 1
@<TRIPOS>SUBSTRUCTURE
1	SAM1	1	GROUP	1 A	SAM
