# created with PyMOL 2.5.0
@<TRIPOS>MOLECULE
4FZV
27 29 1                 
SMALL
USER_CHARGES
@<TRIPOS>ATOM
1	   N	85.747	3.551	21.240	N.3	1	SAM401	0.000	
2	  CA	86.962	2.701	21.681	C.3	1	SAM401	0.000	
3	   C	87.712	3.461	22.753	C.2	1	SAM401	0.000	
4	   O	87.634	4.700	22.863	O.co2	1	SAM401	0.000	
5	  CB	88.001	2.401	20.601	C.3	1	SAM401	0.000	
6	  CG	87.197	1.618	19.557	C.3	1	SAM401	0.000	
7	  SD	88.286	0.902	18.298	S.3	1	SAM401	0.000	
8	  CE	89.038	2.261	17.374	C.3	1	SAM401	0.000	
9	 C5'	87.148	0.156	17.062	C.3	1	SAM401	0.000	
10	 C4'	86.450	-1.098	17.625	C.3	1	SAM401	0.000	
11	 O4'	85.506	-1.602	16.663	O.3	1	SAM401	0.000	
12	 C3'	87.380	-2.288	17.934	C.3	1	SAM401	0.000	
13	 O3'	87.375	-2.476	19.362	O.3	1	SAM401	0.000	
14	 C2'	86.721	-3.489	17.224	C.3	1	SAM401	0.000	
15	 O2'	86.513	-4.636	18.051	O.3	1	SAM401	0.000	
16	 C1'	85.294	-2.974	16.958	C.3	1	SAM401	0.000	
17	 OXT	88.398	2.829	23.523	O.co2	1	SAM401	0.000	
18	  N1	80.555	-3.972	15.253	N.2	1	SAM401	0.000	
19	  C2	80.896	-3.453	16.475	C.2	1	SAM401	0.000	
20	  N3	82.238	-3.307	16.738	N.2	1	SAM401	0.000	
21	  C4	83.189	-3.595	15.795	C.2	1	SAM401	0.000	
22	  C5	82.836	-4.099	14.555	C.2	1	SAM401	0.000	
23	  C6	81.483	-4.299	14.300	C.2	1	SAM401	0.000	
24	  N6	81.034	-4.794	13.115	N.pl3	1	SAM401	0.000	
25	  N7	83.987	-4.293	13.834	N.2	1	SAM401	0.000	
26	  C8	85.062	-3.948	14.570	C.2	1	SAM401	0.000	
27	  N9	84.549	-3.521	15.812	N.2	1	SAM401	0.000	
@<TRIPOS>BOND
1 1 2 1
2 2 3 1
3 2 5 1
4 3 4 ar
5 3 17 ar
6 5 6 1
7 6 7 1
8 7 8 1
9 7 9 1
10 9 10 1
11 10 11 1
12 10 12 1
13 11 16 1
14 12 13 1
15 12 14 1
16 14 15 1
17 14 16 1
18 16 27 1
19 18 19 ar
20 18 23 ar
21 19 20 ar
22 20 21 ar
23 21 22 ar
24 21 27 ar
25 22 23 ar
26 22 25 ar
27 23 24 1
28 25 26 ar
29 26 27 ar
@<TRIPOS>SUBSTRUCTURE
1	SAM401	1	GROUP	1 A	SAM
