# created with PyMOL 2.5.0
@<TRIPOS>MOLECULE
5V9I
27 29 1                 
SMALL
USER_CHARGES
@<TRIPOS>ATOM
1	   N	5.108	-13.155	79.455	N.2	1	90P1506	0.000	
2	   C	4.568	-8.570	81.524	C.3	1	90P1506	0.000	
3	   O	5.959	-8.795	81.326	O.3	1	90P1506	0.000	
4	  C1	6.343	-10.018	80.857	C.2	1	90P1506	0.000	
5	  N1	6.952	-14.644	79.039	N.2	1	90P1506	0.000	
6	  O1	8.467	-9.277	81.531	O.3	1	90P1506	0.000	
7	  C2	5.497	-10.966	80.353	C.2	1	90P1506	0.000	
8	  N2	9.131	-13.998	79.322	N.pl3	1	90P1506	0.000	
9	  C3	5.999	-12.204	79.890	C.2	1	90P1506	0.000	
10	  N3	12.002	-16.989	78.607	N.3	1	90P1506	0.000	
11	  C4	5.628	-14.356	79.094	C.2	1	90P1506	0.000	
12	  N4	4.758	-15.411	78.973	N.pl3	1	90P1506	0.000	
13	  C5	7.824	-13.725	79.448	C.2	1	90P1506	0.000	
14	  C6	9.668	-15.276	78.885	C.3	1	90P1506	0.000	
15	  C7	10.284	-16.000	80.071	C.3	1	90P1506	0.000	
16	  C8	10.983	-17.278	79.614	C.3	1	90P1506	0.000	
17	  C9	12.723	-18.214	78.238	C.3	1	90P1506	0.000	
18	 C10	11.372	-16.388	77.432	C.3	1	90P1506	0.000	
19	 C11	10.695	-15.066	77.785	C.3	1	90P1506	0.000	
20	 C12	7.393	-12.441	79.933	C.2	1	90P1506	0.000	
21	 C13	8.242	-11.450	80.480	C.2	1	90P1506	0.000	
22	 C14	7.734	-10.271	80.938	C.2	1	90P1506	0.000	
23	 C15	9.839	-9.548	81.831	C.3	1	90P1506	0.000	
24	 C16	3.317	-15.199	78.907	C.3	1	90P1506	0.000	
25	 C17	5.266	-16.702	79.667	C.3	1	90P1506	0.000	
26	 C18	5.351	-16.700	81.190	C.3	1	90P1506	0.000	
27	 C22	4.902	-18.078	79.128	C.3	1	90P1506	0.000	
@<TRIPOS>BOND
1 1 9 ar
2 1 11 ar
3 2 3 1
4 3 4 1
5 4 7 ar
6 4 22 ar
7 5 11 ar
8 5 13 ar
9 6 22 1
10 6 23 1
11 7 9 ar
12 8 13 1
13 8 14 1
14 9 20 ar
15 10 16 1
16 10 17 1
17 10 18 1
18 11 12 1
19 12 24 1
20 12 25 1
21 13 20 ar
22 14 15 1
23 14 19 1
24 15 16 1
25 18 19 1
26 20 21 ar
27 21 22 ar
28 25 26 1
29 25 27 1
@<TRIPOS>SUBSTRUCTURE
1	90P1506	1	GROUP	1 A	90P
