# created with PyMOL 2.5.2
@<TRIPOS>MOLECULE
90P
68 71 1                 
SMALL
USER_CHARGES
@<TRIPOS>ATOM
1	  C4	-21.645	-13.907	39.639	C.2	1	90P0	0.000	
2	  C5	-23.875	-13.468	39.193	C.2	1	90P0	0.000	
3	  C6	-25.507	-15.309	39.312	C.3	1	90P0	0.000	
4	  N1	-22.906	-14.311	39.521	N.2	1	90P0	0.000	
5	  C7	-26.787	-15.671	38.553	C.3	1	90P0	0.000	
6	  C8	-27.158	-17.125	38.852	C.3	1	90P0	0.000	
7	  N2	-25.179	-13.901	39.075	N.pl3	1	90P0	0.000	
8	  C9	-27.853	-18.641	40.607	C.3	1	90P0	0.000	
9	 C10	-26.133	-16.995	41.044	C.3	1	90P0	0.000	
10	 C11	-25.731	-15.538	40.810	C.3	1	90P0	0.000	
11	 C12	-23.536	-12.114	38.957	C.2	1	90P0	0.000	
12	  N3	-27.362	-17.292	40.297	N.3	1	90P0	0.000	
13	 C13	-24.500	-11.163	38.597	C.2	1	90P0	0.000	
14	 C14	-24.125	-9.866	38.389	C.2	1	90P0	0.000	
15	 C15	-26.409	-9.404	37.909	C.3	1	90P0	0.000	
16	  N4	-20.680	-14.837	39.985	N.pl3	1	90P0	0.000	
17	 C16	-21.058	-16.234	40.212	C.3	1	90P0	0.000	
18	 C17	-19.282	-14.425	40.122	C.3	1	90P0	0.000	
19	 C22	-18.804	-14.709	41.549	C.3	1	90P0	0.000	
20	 C21	-17.343	-14.279	41.692	C.3	1	90P0	0.000	
21	 C20	-16.480	-15.061	40.700	C.3	1	90P0	0.000	
22	 C19	-16.957	-14.776	39.275	C.3	1	90P0	0.000	
23	 C18	-18.418	-15.207	39.130	C.3	1	90P0	0.000	
24	   N	-21.274	-12.658	39.436	N.2	1	90P0	0.000	
25	  C3	-22.180	-11.728	39.094	C.2	1	90P0	0.000	
26	  C2	-21.819	-10.393	38.871	C.2	1	90P0	0.000	
27	  O1	-25.063	-8.944	38.039	O.3	1	90P0	0.000	
28	  C1	-22.786	-9.477	38.523	C.2	1	90P0	0.000	
29	   O	-22.437	-8.181	38.307	O.3	1	90P0	0.000	
30	   C	-21.057	-7.846	38.458	C.3	1	90P0	0.000	
31	  H1	-24.689	-15.938	38.966	 H	1	90P0	0.000	
32	  H2	-27.598	-15.015	38.872	 H	1	90P0	0.000	
33	  H3	-26.621	-15.551	37.482	 H	1	90P0	0.000	
34	  H4	-28.077	-17.381	38.324	 H	1	90P0	0.000	
35	  H5	-26.353	-17.781	38.521	 H	1	90P0	0.000	
36	  H6	-25.878	-13.274	38.834	 H	1	90P0	0.000	
37	  H7	-27.178	-19.381	40.178	 H	1	90P0	0.000	
38	  H8	-27.898	-18.772	41.688	 H	1	90P0	0.000	
39	 H10	-25.333	-17.652	40.702	 H	1	90P0	0.000	
40	 H11	-26.306	-17.158	42.108	 H	1	90P0	0.000	
41	 H12	-24.811	-15.322	41.352	 H	1	90P0	0.000	
42	 H13	-26.525	-14.880	41.164	 H	1	90P0	0.000	
43	 H15	-25.535	-11.453	38.490	 H	1	90P0	0.000	
44	 H16	-26.457	-10.176	37.141	 H	1	90P0	0.000	
45	 H17	-26.745	-9.817	38.860	 H	1	90P0	0.000	
46	 H18	-27.052	-8.571	37.627	 H	1	90P0	0.000	
47	 H19	-20.993	-16.786	39.274	 H	1	90P0	0.000	
48	 H20	-20.382	-16.679	40.943	 H	1	90P0	0.000	
49	 H21	-22.079	-16.278	40.590	 H	1	90P0	0.000	
50	 H22	-19.195	-13.358	39.917	 H	1	90P0	0.000	
51	 H23	-19.419	-14.152	42.255	 H	1	90P0	0.000	
52	 H24	-18.890	-15.776	41.754	 H	1	90P0	0.000	
53	 H25	-17.257	-13.212	41.487	 H	1	90P0	0.000	
54	 H26	-17.003	-14.481	42.708	 H	1	90P0	0.000	
55	 H27	-15.439	-14.753	40.803	 H	1	90P0	0.000	
56	 H28	-16.566	-16.127	40.906	 H	1	90P0	0.000	
57	 H29	-16.871	-13.710	39.069	 H	1	90P0	0.000	
58	 H30	-16.343	-15.334	38.568	 H	1	90P0	0.000	
59	 H31	-18.505	-16.273	39.336	 H	1	90P0	0.000	
60	 H32	-18.759	-15.005	38.115	 H	1	90P0	0.000	
61	 H33	-20.788	-10.085	38.972	 H	1	90P0	0.000	
62	 H34	-20.739	-8.069	39.477	 H	1	90P0	0.000	
63	 H35	-20.462	-8.431	37.756	 H	1	90P0	0.000	
64	 H36	-20.916	-6.785	38.257	 H	1	90P0	0.000	
65	 C23	-29.252	-18.823	40.014	C.3	1	90P0	0.000	
66	  H9	-29.208	-18.691	38.932	 H	1	90P0	0.000	
67	 H14	-29.617	-19.824	40.244	 H	1	90P0	0.000	
68	 H37	-29.927	-18.082	40.442	 H	1	90P0	0.000	
@<TRIPOS>BOND
1 20 21 1
2 19 20 1
3 21 22 1
4 18 19 1
5 29 30 1
6 16 18 1
7 18 23 1
8 22 23 1
9 28 29 1
10 26 28 2
11 25 26 1
12 24 25 2
13 1 24 1
14 1 16 1
15 16 17 1
16 14 28 1
17 11 25 1
18 1 4 2
19 14 27 1
20 13 14 2
21 2 4 1
22 11 13 1
23 2 11 2
24 15 27 1
25 2 7 1
26 9 10 1
27 3 10 1
28 3 7 1
29 9 12 1
30 3 5 1
31 8 12 1
32 6 12 1
33 5 6 1
34 3 31 1
35 5 32 1
36 5 33 1
37 6 34 1
38 6 35 1
39 7 36 1
40 8 37 1
41 8 38 1
42 9 39 1
43 9 40 1
44 10 41 1
45 10 42 1
46 13 43 1
47 15 44 1
48 15 45 1
49 15 46 1
50 17 47 1
51 17 48 1
52 17 49 1
53 18 50 1
54 19 51 1
55 19 52 1
56 20 53 1
57 20 54 1
58 21 55 1
59 21 56 1
60 22 57 1
61 22 58 1
62 23 59 1
63 23 60 1
64 26 61 1
65 30 62 1
66 30 63 1
67 30 64 1
68 8 65 1
69 65 66 1
70 65 67 1
71 65 68 1
@<TRIPOS>SUBSTRUCTURE
1	90P0	1	GROUP	1 ****	90P
