# created with PyMOL 2.5.2
@<TRIPOS>MOLECULE
90P
68 71 1                 
SMALL
USER_CHARGES
@<TRIPOS>ATOM
1	  C4	5.854	-14.150	78.500	C.2	1	90P0	0.000	
2	  C5	7.912	-13.665	79.444	C.2	1	90P0	0.000	
3	  C6	9.716	-15.337	79.317	C.3	1	90P0	0.000	
4	  N1	7.107	-14.488	78.787	N.2	1	90P0	0.000	
5	  C7	10.868	-15.758	80.234	C.3	1	90P0	0.000	
6	  C8	11.431	-17.098	79.757	C.3	1	90P0	0.000	
7	  N2	9.210	-14.027	79.735	N.pl3	1	90P0	0.000	
8	  C9	12.578	-18.194	77.928	C.3	1	90P0	0.000	
9	 C10	10.808	-16.609	77.466	C.3	1	90P0	0.000	
10	 C11	10.226	-15.255	77.876	C.3	1	90P0	0.000	
11	 C12	7.402	-12.407	79.849	C.2	1	90P0	0.000	
12	  N3	11.906	-16.966	78.374	N.3	1	90P0	0.000	
13	 C13	8.185	-11.485	80.555	C.2	1	90P0	0.000	
14	 C14	7.651	-10.281	80.915	C.2	1	90P0	0.000	
15	 C15	9.754	-9.775	81.907	C.3	1	90P0	0.000	
16	  N4	5.065	-15.056	77.811	N.pl3	1	90P0	0.000	
17	 C16	5.615	-16.354	77.415	C.3	1	90P0	0.000	
18	 C17	3.680	-14.715	77.480	C.3	1	90P0	0.000	
19	 C22	3.496	-14.746	75.960	C.3	1	90P0	0.000	
20	 C21	2.050	-14.390	75.614	C.3	1	90P0	0.000	
21	 C20	1.105	-15.405	76.261	C.3	1	90P0	0.000	
22	 C19	1.288	-15.374	77.780	C.3	1	90P0	0.000	
23	 C18	2.735	-15.730	78.127	C.3	1	90P0	0.000	
24	   N	5.329	-12.992	78.848	N.2	1	90P0	0.000	
25	  C3	6.061	-12.090	79.522	C.2	1	90P0	0.000	
26	  C2	5.534	-10.851	79.905	C.2	1	90P0	0.000	
27	  O1	8.414	-9.386	81.601	O.3	1	90P0	0.000	
28	  C1	6.326	-9.960	80.594	C.2	1	90P0	0.000	
29	   O	5.816	-8.757	80.968	O.3	1	90P0	0.000	
30	   C	4.458	-8.488	80.613	C.3	1	90P0	0.000	
31	  H1	8.915	-16.073	79.378	 H	1	90P0	0.000	
32	  H2	11.653	-15.001	80.203	 H	1	90P0	0.000	
33	  H3	10.501	-15.860	81.256	 H	1	90P0	0.000	
34	  H4	12.261	-17.393	80.399	 H	1	90P0	0.000	
35	  H5	10.649	-17.857	79.801	 H	1	90P0	0.000	
36	  H6	9.789	-13.415	80.217	 H	1	90P0	0.000	
37	  H7	11.914	-19.046	78.077	 H	1	90P0	0.000	
38	  H8	12.829	-18.108	76.871	 H	1	90P0	0.000	
39	 H10	10.029	-17.370	77.522	 H	1	90P0	0.000	
40	 H11	11.185	-16.550	76.446	 H	1	90P0	0.000	
41	 H12	9.401	-14.997	77.212	 H	1	90P0	0.000	
42	 H13	11.001	-14.491	77.807	 H	1	90P0	0.000	
43	 H15	9.208	-11.723	80.808	 H	1	90P0	0.000	
44	 H16	9.741	-10.678	82.518	 H	1	90P0	0.000	
45	 H17	10.295	-9.971	80.981	 H	1	90P0	0.000	
46	 H18	10.249	-8.974	82.454	 H	1	90P0	0.000	
47	 H19	5.439	-17.081	78.208	 H	1	90P0	0.000	
48	 H20	5.130	-16.690	76.498	 H	1	90P0	0.000	
49	 H21	6.687	-16.257	77.242	 H	1	90P0	0.000	
50	 H22	3.451	-13.717	77.852	 H	1	90P0	0.000	
51	 H23	4.169	-14.022	75.499	 H	1	90P0	0.000	
52	 H24	3.725	-15.744	75.587	 H	1	90P0	0.000	
53	 H25	1.821	-13.392	75.986	 H	1	90P0	0.000	
54	 H26	1.920	-14.411	74.531	 H	1	90P0	0.000	
55	 H27	0.074	-15.151	76.014	 H	1	90P0	0.000	
56	 H28	1.334	-16.403	75.888	 H	1	90P0	0.000	
57	 H29	1.060	-14.376	78.153	 H	1	90P0	0.000	
58	 H30	0.616	-16.098	78.241	 H	1	90P0	0.000	
59	 H31	2.964	-16.728	77.754	 H	1	90P0	0.000	
60	 H32	2.866	-15.709	79.209	 H	1	90P0	0.000	
61	 H33	4.512	-10.596	79.662	 H	1	90P0	0.000	
62	 H34	4.353	-8.527	79.528	 H	1	90P0	0.000	
63	 H35	3.809	-9.236	81.068	 H	1	90P0	0.000	
64	 H36	4.178	-7.498	80.970	 H	1	90P0	0.000	
65	 C23	13.859	-18.397	78.741	C.3	1	90P0	0.000	
66	  H9	13.608	-18.483	79.798	 H	1	90P0	0.000	
67	 H14	14.358	-19.309	78.411	 H	1	90P0	0.000	
68	 H37	14.522	-17.546	78.593	 H	1	90P0	0.000	
@<TRIPOS>BOND
1 20 21 1
2 19 20 1
3 21 22 1
4 18 19 1
5 29 30 1
6 16 18 1
7 18 23 1
8 22 23 1
9 28 29 1
10 26 28 2
11 25 26 1
12 24 25 2
13 1 24 1
14 1 16 1
15 16 17 1
16 14 28 1
17 11 25 1
18 1 4 2
19 14 27 1
20 13 14 2
21 2 4 1
22 11 13 1
23 2 11 2
24 15 27 1
25 2 7 1
26 9 10 1
27 3 10 1
28 3 7 1
29 9 12 1
30 3 5 1
31 8 12 1
32 6 12 1
33 5 6 1
34 3 31 1
35 5 32 1
36 5 33 1
37 6 34 1
38 6 35 1
39 7 36 1
40 8 37 1
41 8 38 1
42 9 39 1
43 9 40 1
44 10 41 1
45 10 42 1
46 13 43 1
47 15 44 1
48 15 45 1
49 15 46 1
50 17 47 1
51 17 48 1
52 17 49 1
53 18 50 1
54 19 51 1
55 19 52 1
56 20 53 1
57 20 54 1
58 21 55 1
59 21 56 1
60 22 57 1
61 22 58 1
62 23 59 1
63 23 60 1
64 26 61 1
65 30 62 1
66 30 63 1
67 30 64 1
68 8 65 1
69 65 66 1
70 65 67 1
71 65 68 1
@<TRIPOS>SUBSTRUCTURE
1	90P0	1	GROUP	1 ****	90P
