# created with PyMOL 2.5.0
@<TRIPOS>MOLECULE
5V9I
27 29 1                 
SMALL
USER_CHARGES
@<TRIPOS>ATOM
1	   N	-21.195	-12.631	39.569	N.2	1	90P1506	0.000	
2	   C	-21.235	-7.733	38.153	C.3	1	90P1506	0.000	
3	   O	-22.583	-8.198	38.234	O.3	1	90P1506	0.000	
4	  C1	-22.803	-9.518	38.521	C.2	1	90P1506	0.000	
5	  N1	-22.855	-14.365	39.789	N.2	1	90P1506	0.000	
6	  O1	-25.012	-8.989	37.899	O.3	1	90P1506	0.000	
7	  C2	-21.848	-10.406	38.941	C.2	1	90P1506	0.000	
8	  N2	-25.100	-13.930	39.673	N.pl3	1	90P1506	0.000	
9	  C3	-22.197	-11.739	39.259	C.2	1	90P1506	0.000	
10	  N3	-27.619	-17.293	39.811	N.3	1	90P1506	0.000	
11	  C4	-21.579	-13.921	39.783	C.2	1	90P1506	0.000	
12	  N4	-20.597	-14.866	39.933	N.pl3	1	90P1506	0.000	
13	  C5	-23.833	-13.503	39.522	C.2	1	90P1506	0.000	
14	  C6	-25.490	-15.310	39.983	C.3	1	90P1506	0.000	
15	  C7	-25.802	-16.052	38.689	C.3	1	90P1506	0.000	
16	  C8	-26.422	-17.424	38.983	C.3	1	90P1506	0.000	
17	  C9	-28.258	-18.587	40.002	C.3	1	90P1506	0.000	
18	 C10	-27.252	-16.704	41.098	C.3	1	90P1506	0.000	
19	 C11	-26.694	-15.295	40.918	C.3	1	90P1506	0.000	
20	 C12	-23.558	-12.129	39.194	C.2	1	90P1506	0.000	
21	 C13	-24.519	-11.193	38.750	C.2	1	90P1506	0.000	
22	 C14	-24.155	-9.930	38.398	C.2	1	90P1506	0.000	
23	 C15	-26.369	-9.389	37.669	C.3	1	90P1506	0.000	
24	 C16	-20.919	-16.297	39.942	C.3	1	90P1506	0.000	
25	 C17	-19.149	-14.449	39.751	C.3	1	90P1506	0.000	
26	 C18	-18.334	-15.224	38.722	C.3	1	90P1506	0.000	
27	 C22	-18.403	-14.386	41.063	C.3	1	90P1506	0.000	
@<TRIPOS>BOND
1 1 9 ar
2 1 11 ar
3 2 3 1
4 3 4 1
5 4 7 ar
6 4 22 ar
7 5 11 ar
8 5 13 ar
9 6 22 1
10 6 23 1
11 7 9 ar
12 8 13 1
13 8 14 1
14 9 20 ar
15 10 16 1
16 10 17 1
17 10 18 1
18 11 12 1
19 12 24 1
20 12 25 1
21 13 20 ar
22 14 15 1
23 14 19 1
24 15 16 1
25 18 19 1
26 20 21 ar
27 21 22 ar
28 25 26 1
29 25 27 1
@<TRIPOS>SUBSTRUCTURE
1	90P1506	1	GROUP	1 B	90P
