@<TRIPOS>MOLECULE
90P.****
70 73 1 0 0 
SMALL
USER_CHARGES


@<TRIPOS>ATOM
  1 C4       5.8540   -14.1500    78.5000 C.ar  1 Q90P0   0.7710 
  2 C5       7.9120   -13.6650    79.4440 C.ar  1 Q90P0   0.4100 
  3 C6       9.7160   -15.3370    79.3170 C.3   1 Q90P0   0.2891 
  4 N1       7.1070   -14.4880    78.7870 N.ar  1 Q90P0  -0.6200 
  5 C7      10.8680   -15.7580    80.2340 C.3   1 Q90P0  -0.1600 
  6 C8      11.4310   -17.0980    79.7570 C.3   1 Q90P0   0.3430 
  7 N2       9.2100   -14.0270    79.7350 N.pl3 1 Q90P0  -0.8691 
  8 H6       9.7890   -13.4150    80.2170 H     1 Q90P0   0.4000 
  9 C9      12.5780   -18.1940    77.9280 C.3   1 Q90P0   0.3430 
 10 C10     10.8080   -16.6090    77.4660 C.3   1 Q90P0   0.3430 
 11 C11     10.2260   -15.2550    77.8760 C.3   1 Q90P0  -0.1600 
 12 C12      7.4020   -12.4070    79.8490 C.ar  1 Q90P0   0.0000 
 13 N3      11.9060   -16.9660    78.3740 N.4   1 Q90P0  -0.9590 
 14 H3      12.5810   -16.2150    78.3518 H     1 Q90P0   0.4500 
 15 C13      8.1850   -11.4850    80.5550 C.ar  1 Q90P0  -0.1500 
 16 C14      7.6510   -10.2810    80.9150 C.ar  1 Q90P0   0.0825 
 17 C15      9.7540    -9.7750    81.9070 C.3   1 Q90P0   0.0400 
 18 N4       5.0650   -15.0560    77.8110 N.pl3 1 Q90P0  -0.8382 
 19 C16      5.6150   -16.3540    77.4150 C.3   1 Q90P0   0.1291 
 20 C17      3.6800   -14.7150    77.4800 C.3   1 Q90P0   0.2891 
 21 C22      3.4960   -14.7460    75.9600 C.3   1 Q90P0  -0.1600 
 22 C21      2.0500   -14.3900    75.6140 C.3   1 Q90P0  -0.1600 
 23 C20      1.1050   -15.4050    76.2610 C.3   1 Q90P0  -0.1600 
 24 C19      1.2880   -15.3740    77.7800 C.3   1 Q90P0  -0.1600 
 25 C18      2.7350   -15.7300    78.1270 C.3   1 Q90P0  -0.1600 
 26 N        5.3290   -12.9920    78.8480 N.ar  1 Q90P0  -0.1790 
 27 H        4.3711   -12.7820    78.6065 H     1 Q90P0   0.4570 
 28 C3       6.0610   -12.0900    79.5220 C.ar  1 Q90P0   0.3610 
 29 C2       5.5340   -10.8510    79.9050 C.ar  1 Q90P0  -0.1500 
 30 O1       8.4140    -9.3860    81.6010 O.3   1 Q90P0  -0.3625 
 31 C1       6.3260    -9.9600    80.5940 C.ar  1 Q90P0   0.0825 
 32 O        5.8160    -8.7570    80.9680 O.3   1 Q90P0  -0.3625 
 33 C        4.4580    -8.4880    80.6130 C.3   1 Q90P0   0.0400 
 34 H1       8.9150   -16.0730    79.3780 H     1 Q90P0   0.0800 
 35 H2      11.6530   -15.0010    80.2030 H     1 Q90P0   0.0800 
 36 H3      10.5010   -15.8600    81.2560 H     1 Q90P0   0.0800 
 37 H4      12.2610   -17.3930    80.3990 H     1 Q90P0   0.0800 
 38 H5      10.6490   -17.8570    79.8010 H     1 Q90P0   0.0800 
 39 H7      11.9140   -19.0460    78.0770 H     1 Q90P0   0.0800 
 40 H8      12.8290   -18.1080    76.8710 H     1 Q90P0   0.0800 
 41 H10     10.0290   -17.3700    77.5220 H     1 Q90P0   0.0800 
 42 H11     11.1850   -16.5500    76.4460 H     1 Q90P0   0.0800 
 43 H12      9.4010   -14.9970    77.2120 H     1 Q90P0   0.0800 
 44 H13     11.0010   -14.4910    77.8070 H     1 Q90P0   0.0800 
 45 H15      9.2080   -11.7230    80.8080 H     1 Q90P0   0.1500 
 46 H16      9.7410   -10.6780    82.5180 H     1 Q90P0   0.0800 
 47 H17     10.2950    -9.9710    80.9810 H     1 Q90P0   0.0800 
 48 H18     10.2490    -8.9740    82.4540 H     1 Q90P0   0.0800 
 49 H19      5.4390   -17.0810    78.2080 H     1 Q90P0   0.0800 
 50 H20      5.1300   -16.6900    76.4980 H     1 Q90P0   0.0800 
 51 H21      6.6870   -16.2570    77.2420 H     1 Q90P0   0.0800 
 52 H22      3.4510   -13.7170    77.8520 H     1 Q90P0   0.0800 
 53 H23      4.1690   -14.0220    75.4990 H     1 Q90P0   0.0800 
 54 H24      3.7250   -15.7440    75.5870 H     1 Q90P0   0.0800 
 55 H25      1.8210   -13.3920    75.9860 H     1 Q90P0   0.0800 
 56 H26      1.9200   -14.4110    74.5310 H     1 Q90P0   0.0800 
 57 H27      0.0740   -15.1510    76.0140 H     1 Q90P0   0.0800 
 58 H28      1.3340   -16.4030    75.8880 H     1 Q90P0   0.0800 
 59 H29      1.0600   -14.3760    78.1530 H     1 Q90P0   0.0800 
 60 H30      0.6160   -16.0980    78.2410 H     1 Q90P0   0.0800 
 61 H31      2.9640   -16.7280    77.7540 H     1 Q90P0   0.0800 
 62 H32      2.8660   -15.7090    79.2090 H     1 Q90P0   0.0800 
 63 H33      4.5120   -10.5960    79.6620 H     1 Q90P0   0.1500 
 64 H34      4.3530    -8.5270    79.5280 H     1 Q90P0   0.0800 
 65 H35      3.8090    -9.2360    81.0680 H     1 Q90P0   0.0800 
 66 H36      4.1780    -7.4980    80.9700 H     1 Q90P0   0.0800 
 67 C23     13.8590   -18.3970    78.7410 C.3   1 Q90P0  -0.2400 
 68 H9      13.6080   -18.4830    79.7980 H     1 Q90P0   0.0800 
 69 H14     14.3580   -19.3090    78.4110 H     1 Q90P0   0.0800 
 70 H37     14.5220   -17.5460    78.5930 H     1 Q90P0   0.0800 
@<TRIPOS>BOND
  1   1   4  ar  
  2   1  18  1   
  3   1  26  ar  
  4   2   4  ar  
  5   2   7  1   
  6   2  12  ar  
  7   3   5  1   
  8   3   7  1   
  9   3  11  1   
 10   3  34  1   
 11   5   6  1   
 12   5  35  1   
 13   5  36  1   
 14   6  13  1   
 15   6  37  1   
 16   6  38  1   
 17   7   8  1   
 18   9  13  1   
 19   9  39  1   
 20   9  40  1   
 21   9  67  1   
 22  10  11  1   
 23  10  13  1   
 24  10  41  1   
 25  10  42  1   
 26  11  43  1   
 27  11  44  1   
 28  12  15  ar  
 29  12  28  ar  
 30  13  14  1   
 31  15  16  ar  
 32  15  45  1   
 33  16  30  1   
 34  16  31  ar  
 35  17  30  1   
 36  17  46  1   
 37  17  47  1   
 38  17  48  1   
 39  18  19  1   
 40  18  20  1   
 41  19  49  1   
 42  19  50  1   
 43  19  51  1   
 44  20  21  1   
 45  20  25  1   
 46  20  52  1   
 47  21  22  1   
 48  21  53  1   
 49  21  54  1   
 50  22  23  1   
 51  22  55  1   
 52  22  56  1   
 53  23  24  1   
 54  23  57  1   
 55  23  58  1   
 56  24  25  1   
 57  24  59  1   
 58  24  60  1   
 59  25  61  1   
 60  25  62  1   
 61  26  27  1   
 62  26  28  ar  
 63  28  29  ar  
 64  29  31  ar  
 65  29  63  1   
 66  31  32  1   
 67  32  33  1   
 68  33  64  1   
 69  33  65  1   
 70  33  66  1   
 71  67  68  1   
 72  67  69  1   
 73  67  70  1   
@<TRIPOS>SUBSTRUCTURE
  1 Q90P0   4 GROUP 4 **** **** 0

# MOE 2022.02 (io_trps.svl 2020.11)
