@<TRIPOS>MOLECULE
90P.****
70 73 1 0 0 
SMALL
USER_CHARGES


@<TRIPOS>ATOM
  1 C4     -21.6450   -13.9070    39.6390 C.ar  1 Q90P0   0.7710 
  2 C5     -23.8750   -13.4680    39.1930 C.ar  1 Q90P0   0.4100 
  3 C6     -25.5070   -15.3090    39.3120 C.3   1 Q90P0   0.2891 
  4 N1     -22.9060   -14.3110    39.5210 N.ar  1 Q90P0  -0.6200 
  5 C7     -26.7870   -15.6710    38.5530 C.3   1 Q90P0  -0.1600 
  6 C8     -27.1580   -17.1250    38.8520 C.3   1 Q90P0   0.3430 
  7 N2     -25.1790   -13.9010    39.0750 N.pl3 1 Q90P0  -0.8691 
  8 H6     -25.8780   -13.2740    38.8340 H     1 Q90P0   0.4000 
  9 C9     -27.8530   -18.6410    40.6070 C.3   1 Q90P0   0.3430 
 10 C10    -26.1330   -16.9950    41.0440 C.3   1 Q90P0   0.3430 
 11 C11    -25.7310   -15.5380    40.8100 C.3   1 Q90P0  -0.1600 
 12 C12    -23.5360   -12.1140    38.9570 C.ar  1 Q90P0   0.0000 
 13 N3     -27.3620   -17.2920    40.2970 N.4   1 Q90P0  -0.9590 
 14 H3     -28.0671   -16.6296    40.5872 H     1 Q90P0   0.4500 
 15 C13    -24.5000   -11.1630    38.5970 C.ar  1 Q90P0  -0.1500 
 16 C14    -24.1250    -9.8660    38.3890 C.ar  1 Q90P0   0.0825 
 17 C15    -26.4090    -9.4040    37.9090 C.3   1 Q90P0   0.0400 
 18 N4     -20.6800   -14.8370    39.9850 N.pl3 1 Q90P0  -0.8382 
 19 C16    -21.0580   -16.2340    40.2120 C.3   1 Q90P0   0.1291 
 20 C17    -19.2820   -14.4250    40.1220 C.3   1 Q90P0   0.2891 
 21 C22    -18.8040   -14.7090    41.5490 C.3   1 Q90P0  -0.1600 
 22 C21    -17.3430   -14.2790    41.6920 C.3   1 Q90P0  -0.1600 
 23 C20    -16.4800   -15.0610    40.7000 C.3   1 Q90P0  -0.1600 
 24 C19    -16.9570   -14.7760    39.2750 C.3   1 Q90P0  -0.1600 
 25 C18    -18.4180   -15.2070    39.1300 C.3   1 Q90P0  -0.1600 
 26 N      -21.2740   -12.6580    39.4360 N.ar  1 Q90P0  -0.1790 
 27 H      -20.3030   -12.3995    39.5383 H     1 Q90P0   0.4570 
 28 C3     -22.1800   -11.7280    39.0940 C.ar  1 Q90P0   0.3610 
 29 C2     -21.8190   -10.3930    38.8710 C.ar  1 Q90P0  -0.1500 
 30 O1     -25.0630    -8.9440    38.0390 O.3   1 Q90P0  -0.3625 
 31 C1     -22.7860    -9.4770    38.5230 C.ar  1 Q90P0   0.0825 
 32 O      -22.4370    -8.1810    38.3070 O.3   1 Q90P0  -0.3625 
 33 C      -21.0570    -7.8460    38.4580 C.3   1 Q90P0   0.0400 
 34 H1     -24.6890   -15.9380    38.9660 H     1 Q90P0   0.0800 
 35 H2     -27.5980   -15.0150    38.8720 H     1 Q90P0   0.0800 
 36 H3     -26.6210   -15.5510    37.4820 H     1 Q90P0   0.0800 
 37 H4     -28.0770   -17.3810    38.3240 H     1 Q90P0   0.0800 
 38 H5     -26.3530   -17.7810    38.5210 H     1 Q90P0   0.0800 
 39 H7     -27.1780   -19.3810    40.1780 H     1 Q90P0   0.0800 
 40 H8     -27.8980   -18.7720    41.6880 H     1 Q90P0   0.0800 
 41 H10    -25.3330   -17.6520    40.7020 H     1 Q90P0   0.0800 
 42 H11    -26.3060   -17.1580    42.1080 H     1 Q90P0   0.0800 
 43 H12    -24.8110   -15.3220    41.3520 H     1 Q90P0   0.0800 
 44 H13    -26.5250   -14.8800    41.1640 H     1 Q90P0   0.0800 
 45 H15    -25.5350   -11.4530    38.4900 H     1 Q90P0   0.1500 
 46 H16    -26.4570   -10.1760    37.1410 H     1 Q90P0   0.0800 
 47 H17    -26.7450    -9.8170    38.8600 H     1 Q90P0   0.0800 
 48 H18    -27.0520    -8.5710    37.6270 H     1 Q90P0   0.0800 
 49 H19    -20.9930   -16.7860    39.2740 H     1 Q90P0   0.0800 
 50 H20    -20.3820   -16.6790    40.9430 H     1 Q90P0   0.0800 
 51 H21    -22.0790   -16.2780    40.5900 H     1 Q90P0   0.0800 
 52 H22    -19.1950   -13.3580    39.9170 H     1 Q90P0   0.0800 
 53 H23    -19.4190   -14.1520    42.2550 H     1 Q90P0   0.0800 
 54 H24    -18.8900   -15.7760    41.7540 H     1 Q90P0   0.0800 
 55 H25    -17.2570   -13.2120    41.4870 H     1 Q90P0   0.0800 
 56 H26    -17.0030   -14.4810    42.7080 H     1 Q90P0   0.0800 
 57 H27    -15.4390   -14.7530    40.8030 H     1 Q90P0   0.0800 
 58 H28    -16.5660   -16.1270    40.9060 H     1 Q90P0   0.0800 
 59 H29    -16.8710   -13.7100    39.0690 H     1 Q90P0   0.0800 
 60 H30    -16.3430   -15.3340    38.5680 H     1 Q90P0   0.0800 
 61 H31    -18.5050   -16.2730    39.3360 H     1 Q90P0   0.0800 
 62 H32    -18.7590   -15.0050    38.1150 H     1 Q90P0   0.0800 
 63 H33    -20.7880   -10.0850    38.9720 H     1 Q90P0   0.1500 
 64 H34    -20.7390    -8.0690    39.4770 H     1 Q90P0   0.0800 
 65 H35    -20.4620    -8.4310    37.7560 H     1 Q90P0   0.0800 
 66 H36    -20.9160    -6.7850    38.2570 H     1 Q90P0   0.0800 
 67 C23    -29.2520   -18.8230    40.0140 C.3   1 Q90P0  -0.2400 
 68 H9     -29.2080   -18.6910    38.9320 H     1 Q90P0   0.0800 
 69 H14    -29.6170   -19.8240    40.2440 H     1 Q90P0   0.0800 
 70 H37    -29.9270   -18.0820    40.4420 H     1 Q90P0   0.0800 
@<TRIPOS>BOND
  1   1   4  ar  
  2   1  18  1   
  3   1  26  ar  
  4   2   4  ar  
  5   2   7  1   
  6   2  12  ar  
  7   3   5  1   
  8   3   7  1   
  9   3  11  1   
 10   3  34  1   
 11   5   6  1   
 12   5  35  1   
 13   5  36  1   
 14   6  13  1   
 15   6  37  1   
 16   6  38  1   
 17   7   8  1   
 18   9  13  1   
 19   9  39  1   
 20   9  40  1   
 21   9  67  1   
 22  10  11  1   
 23  10  13  1   
 24  10  41  1   
 25  10  42  1   
 26  11  43  1   
 27  11  44  1   
 28  12  15  ar  
 29  12  28  ar  
 30  13  14  1   
 31  15  16  ar  
 32  15  45  1   
 33  16  30  1   
 34  16  31  ar  
 35  17  30  1   
 36  17  46  1   
 37  17  47  1   
 38  17  48  1   
 39  18  19  1   
 40  18  20  1   
 41  19  49  1   
 42  19  50  1   
 43  19  51  1   
 44  20  21  1   
 45  20  25  1   
 46  20  52  1   
 47  21  22  1   
 48  21  53  1   
 49  21  54  1   
 50  22  23  1   
 51  22  55  1   
 52  22  56  1   
 53  23  24  1   
 54  23  57  1   
 55  23  58  1   
 56  24  25  1   
 57  24  59  1   
 58  24  60  1   
 59  25  61  1   
 60  25  62  1   
 61  26  27  1   
 62  26  28  ar  
 63  28  29  ar  
 64  29  31  ar  
 65  29  63  1   
 66  31  32  1   
 67  32  33  1   
 68  33  64  1   
 69  33  65  1   
 70  33  66  1   
 71  67  68  1   
 72  67  69  1   
 73  67  70  1   
@<TRIPOS>SUBSTRUCTURE
  1 Q90P0   4 GROUP 4 **** **** 0

# MOE 2022.02 (io_trps.svl 2020.11)
