# created with PyMOL 2.5.0
@<TRIPOS>MOLECULE
5V9I
27 29 1                 
SMALL
USER_CHARGES
@<TRIPOS>ATOM
1	   N	-31.021	2.231	41.568	N.3	1	SAM1505	0.000	
2	  CA	-30.587	1.304	42.632	C.3	1	SAM1505	0.000	
3	   C	-31.439	1.470	43.953	C.2	1	SAM1505	0.000	
4	   O	-32.354	2.314	43.906	O.co2	1	SAM1505	0.000	
5	  CB	-29.074	1.586	42.908	C.3	1	SAM1505	0.000	
6	  CG	-28.159	0.769	41.915	C.3	1	SAM1505	0.000	
7	  SD	-28.280	-1.041	42.157	S.3	1	SAM1505	0.000	
8	  CE	-26.611	-1.383	42.402	C.3	1	SAM1505	0.000	
9	 C5'	-28.468	-1.616	40.448	C.3	1	SAM1505	0.000	
10	 C4'	-29.948	-1.646	40.034	C.3	1	SAM1505	0.000	
11	 O4'	-30.382	-0.295	39.735	O.3	1	SAM1505	0.000	
12	 C3'	-30.269	-2.451	38.776	C.3	1	SAM1505	0.000	
13	 O3'	-30.486	-3.830	39.063	O.3	1	SAM1505	0.000	
14	 C2'	-31.523	-1.735	38.262	C.3	1	SAM1505	0.000	
15	 O2'	-32.668	-2.050	39.044	O.3	1	SAM1505	0.000	
16	 C1'	-31.148	-0.280	38.541	C.3	1	SAM1505	0.000	
17	 OXT	-31.179	0.730	44.938	O.co2	1	SAM1505	0.000	
18	  N1	-30.926	1.191	33.596	N.2	1	SAM1505	0.000	
19	  C2	-31.899	0.612	34.308	C.2	1	SAM1505	0.000	
20	  N3	-31.885	0.233	35.591	N.2	1	SAM1505	0.000	
21	  C4	-30.707	0.530	36.168	C.2	1	SAM1505	0.000	
22	  C5	-29.612	1.127	35.560	C.2	1	SAM1505	0.000	
23	  C6	-29.747	1.471	34.198	C.2	1	SAM1505	0.000	
24	  N6	-28.795	2.085	33.481	N.pl3	1	SAM1505	0.000	
25	  N7	-28.575	1.290	36.468	N.2	1	SAM1505	0.000	
26	  C8	-29.063	0.809	37.585	C.2	1	SAM1505	0.000	
27	  N9	-30.347	0.339	37.480	N.2	1	SAM1505	0.000	
@<TRIPOS>BOND
1 1 2 1
2 2 3 1
3 2 5 1
4 3 4 ar
5 3 17 ar
6 5 6 1
7 6 7 1
8 7 8 1
9 7 9 1
10 9 10 1
11 10 11 1
12 10 12 1
13 11 16 1
14 12 13 1
15 12 14 1
16 14 15 1
17 14 16 1
18 16 27 1
19 18 19 ar
20 18 23 ar
21 19 20 ar
22 20 21 ar
23 21 22 ar
24 21 27 ar
25 22 23 ar
26 22 25 ar
27 23 24 1
28 25 26 ar
29 26 27 ar
@<TRIPOS>SUBSTRUCTURE
1	SAM1505	1	GROUP	1 B	SAM
