# created with PyMOL 2.4.0
@<TRIPOS>MOLECULE
temp
50 52 1                 
SMALL
USER_CHARGES
@<TRIPOS>ATOM
1	   N	13.093	2.906	79.218	N.4	1	SAM1	0.000	
2	  CA	12.778	1.987	78.103	C.3	1	SAM1	0.000	
3	   C	13.643	2.298	76.795	C.2	1	SAM1	0.000	
4	   O	14.514	3.196	76.906	O.co2	1	SAM1	0.000	
5	  CB	11.279	2.076	77.817	C.3	1	SAM1	0.000	
6	  CG	10.446	1.102	78.690	C.3	1	SAM1	0.000	
7	  SD	10.707	-0.626	78.241	S.3	1	SAM1	0.000	
8	  CE	9.064	-1.103	78.002	C.3	1	SAM1	0.000	
9	 C5'	11.048	-1.338	79.854	C.3	1	SAM1	0.000	
10	 C4'	12.515	-1.226	80.260	C.3	1	SAM1	0.000	
11	 O4'	12.751	0.120	80.743	O.3	1	SAM1	0.000	
12	 C3'	12.932	-2.122	81.422	C.3	1	SAM1	0.000	
13	 O3'	13.271	-3.442	81.028	O.3	1	SAM1	0.000	
14	 C2'	14.083	-1.324	82.027	C.3	1	SAM1	0.000	
15	 O2'	15.246	-1.366	81.207	O.3	1	SAM1	0.000	
16	 C1'	13.508	0.086	81.943	C.3	1	SAM1	0.000	
17	 OXT	13.422	1.629	75.758	O.co2	1	SAM1	0.000	
18	  N1	13.124	0.995	87.017	N.2	1	SAM1	0.000	
19	  C2	14.165	0.646	86.250	C.2	1	SAM1	0.000	
20	  N3	14.195	0.411	84.933	N.2	1	SAM1	0.000	
21	  C4	12.978	0.580	84.387	C.2	1	SAM1	0.000	
22	  C5	11.813	0.938	85.049	C.2	1	SAM1	0.000	
23	  C6	11.908	1.147	86.442	C.2	1	SAM1	0.000	
24	  N6	10.871	1.474	87.224	N.pl3	1	SAM1	0.000	
25	  N7	10.754	1.037	84.159	N.2	1	SAM1	0.000	
26	  C8	11.291	0.741	83.001	C.2	1	SAM1	0.000	
27	  N9	12.633	0.456	83.062	N.2	1	SAM1	0.000	
28	  HA	13.041	0.970	78.395	 H	1	SAM1	0.000	
29	 HB1	11.109	1.836	76.767	 H	1	SAM1	0.000	
30	 HB2	10.946	3.095	78.016	 H	1	SAM1	0.000	
31	 HG1	9.389	1.339	78.567	 H	1	SAM1	0.000	
32	 HG2	10.730	1.238	79.733	 H	1	SAM1	0.000	
33	 HE1	8.714	-0.731	77.039	 H	1	SAM1	0.000	
34	 HE2	8.446	-0.688	78.798	 H	1	SAM1	0.000	
35	 HE3	8.995	-2.191	78.018	 H	1	SAM1	0.000	
36	  H1	12.851	3.851	78.954	 H	1	SAM1	0.000	
37	  H2	14.080	2.857	79.426	 H	1	SAM1	0.000	
38	  H2	15.109	0.540	86.765	 H	1	SAM1	0.000	
39	  H3	12.563	2.638	80.035	 H	1	SAM1	0.000	
40	  H8	10.728	0.723	82.080	 H	1	SAM1	0.000	
41	 H1'	14.333	0.797	81.974	 H	1	SAM1	0.000	
42	 H2'	14.384	-1.681	83.012	 H	1	SAM1	0.000	
43	 H2'	15.548	-2.277	81.179	 H	1	SAM1	0.000	
44	 H3'	12.133	-2.322	82.136	 H	1	SAM1	0.000	
45	 H3'	13.552	-3.916	81.814	 H	1	SAM1	0.000	
46	 H4'	13.078	-1.513	79.372	 H	1	SAM1	0.000	
47	 H61	9.951	1.585	86.822	 H	1	SAM1	0.000	
48	 H62	11.009	1.609	88.215	 H	1	SAM1	0.000	
49	H5'1	10.774	-2.393	79.833	 H	1	SAM1	0.000	
50	H5'2	10.442	-0.820	80.597	 H	1	SAM1	0.000	
@<TRIPOS>BOND
1 1 2 1
2 1 36 1
3 1 37 1
4 1 39 1
5 2 3 1
6 2 5 1
7 2 28 1
8 3 4 ar
9 3 17 ar
10 5 6 1
11 5 29 1
12 5 30 1
13 6 7 1
14 6 31 1
15 6 32 1
16 7 8 1
17 7 9 1
18 8 33 1
19 8 34 1
20 8 35 1
21 9 10 1
22 9 49 1
23 9 50 1
24 10 11 1
25 10 12 1
26 10 46 1
27 11 16 1
28 12 13 1
29 12 14 1
30 12 44 1
31 13 45 1
32 14 15 1
33 14 16 1
34 14 42 1
35 15 43 1
36 16 27 1
37 16 41 1
38 18 19 ar
39 18 23 ar
40 19 20 ar
41 19 38 1
42 20 21 ar
43 21 22 ar
44 21 27 ar
45 22 23 ar
46 22 25 ar
47 23 24 1
48 24 47 1
49 24 48 1
50 25 26 ar
51 26 27 ar
52 26 40 1
@<TRIPOS>SUBSTRUCTURE
1	SAM1	1	GROUP	1 A	SAM
