@<TRIPOS>MOLECULE
5V9I.B
51 53 1 0 0 
SMALL
USER_CHARGES


@<TRIPOS>ATOM
  1 N      -31.0210     2.2310    41.5680 N.4   1 SAM  -0.8530 
  2 H1     -30.8801     3.1834    41.8732 H     1 SAM   0.4500 
  3 H2     -32.0003     2.0821    41.3705 H     1 SAM   0.4500 
  4 H3     -30.4795     2.0616    40.7324 H     1 SAM   0.4500 
  5 CA     -30.5870     1.3040    42.6320 C.3   1 SAM   0.3170 
  6 HA     -30.7386     0.2757    42.3037 H     1 SAM   0.0800 
  7 C      -31.4390     1.4700    43.9530 C.2   1 SAM   0.9060 
  8 O      -32.3540     2.3140    43.9060 O.co2 1 SAM  -0.9000 
  9 CB     -29.0740     1.5860    42.9080 C.3   1 SAM  -0.1600 
 10 HB1    -28.8378     1.2958    43.9318 H     1 SAM   0.0800 
 11 HB2    -28.8799     2.6507    42.7782 H     1 SAM   0.0800 
 12 CG     -28.1590     0.7690    41.9150 C.3   1 SAM  -0.1525 
 13 HG1    -27.1231     1.0715    42.0684 H     1 SAM   0.0800 
 14 HG2    -28.4586     1.0038    40.8936 H     1 SAM   0.0800 
 15 SD     -28.2800    -1.0410    42.1570 S.3   1 SAM   0.9775 
 16 CE     -26.6110    -1.3830    42.4020 C.3   1 SAM  -0.2325 
 17 HE1    -26.3242    -1.0887    43.4116 H     1 SAM   0.0800 
 18 HE2    -26.0159    -0.8260    41.6783 H     1 SAM   0.0800 
 19 HE3    -26.4359    -2.4509    42.2712 H     1 SAM   0.0800 
 20 C5'    -28.4680    -1.6160    40.4480 C.3   1 SAM  -0.1525 
 21 H5'1   -28.0541    -2.6207    40.3629 H     1 SAM   0.0800 
 22 H5'2   -27.9262    -0.9424    39.7841 H     1 SAM   0.0800 
 23 C4'    -29.9480    -1.6460    40.0340 C.3   1 SAM   0.2000 
 24 H4'    -30.4515    -2.1170    40.8783 H     1 SAM   0.0800 
 25 O4'    -30.3820    -0.2950    39.7350 O.3   1 SAM  -0.5600 
 26 C3'    -30.2690    -2.4510    38.7760 C.3   1 SAM   0.2000 
 27 H3'    -29.4619    -2.4791    38.0440 H     1 SAM   0.0800 
 28 O3'    -30.4860    -3.8300    39.0630 O.3   1 SAM  -0.6800 
 29 H3'    -30.7311    -4.2624    38.2417 H     1 SAM   0.4000 
 30 C2'    -31.5230    -1.7350    38.2620 C.3   1 SAM   0.2000 
 31 H2'    -31.7721    -1.9891    37.2317 H     1 SAM   0.0800 
 32 O2'    -32.6680    -2.0500    39.0440 O.3   1 SAM  -0.6800 
 33 H2'    -32.8409    -2.9886    38.9405 H     1 SAM   0.4000 
 34 C1'    -31.1480    -0.2800    38.5410 C.3   1 SAM   0.5691 
 35 H1'    -32.0630     0.3082    38.6111 H     1 SAM   0.0800 
 36 OXT    -31.1790     0.7300    44.9380 O.co2 1 SAM  -0.9000 
 37 N1     -30.9260     1.1910    33.5960 N.2   1 SAM  -0.6610 
 38 C2     -31.8990     0.6120    34.3080 C.2   1 SAM   0.6010 
 39 H2     -32.8199     0.4253    33.7756 H     1 SAM   0.0600 
 40 N3     -31.8850     0.2330    35.5910 N.2   1 SAM  -0.6610 
 41 C4     -30.7070     0.5300    36.1680 C.2   1 SAM   0.5000 
 42 C5     -29.6120     1.1270    35.5600 C.2   1 SAM   0.4500 
 43 C6     -29.7470     1.4710    34.1980 C.2   1 SAM   0.6110 
 44 N6     -28.7950     2.0850    33.4810 N.2   1 SAM  -0.2000 
 45 H62    -28.9571     2.3029    32.5082 H     1 SAM   0.4000 
 46 H61    -27.9158     2.3296    33.9136 H     1 SAM   0.4000 
 47 N7     -28.5750     1.2900    36.4680 N.2   1 SAM  -0.6960 
 48 C8     -29.0630     0.8090    37.5850 C.3   1 SAM   0.4551 
 49 H81    -29.0489     1.6012    38.3336 H     1 SAM   0.0800 
 50 H82    -28.4242    -0.0114    37.9121 H     1 SAM   0.0800 
 51 N9     -30.3470     0.3390    37.4800 N.pl3 1 SAM  -0.7882 
@<TRIPOS>BOND
  1   1   2  1   
  2   1   3  1   
  3   1   4  1   
  4   1   5  1   
  5   5   6  1   
  6   5   7  1   
  7   5   9  1   
  8   7   8  ar  
  9   7  36  ar  
 10   9  10  1   
 11   9  11  1   
 12   9  12  1   
 13  12  13  1   
 14  12  14  1   
 15  12  15  1   
 16  15  16  1   
 17  15  20  1   
 18  16  17  1   
 19  16  18  1   
 20  16  19  1   
 21  20  21  1   
 22  20  22  1   
 23  20  23  1   
 24  23  24  1   
 25  23  25  1   
 26  23  26  1   
 27  25  34  1   
 28  26  27  1   
 29  26  28  1   
 30  26  30  1   
 31  28  29  1   
 32  30  31  1   
 33  30  32  1   
 34  30  34  1   
 35  32  33  1   
 36  34  35  1   
 37  34  51  1   
 38  37  38  2   
 39  37  43  1   
 40  38  39  1   
 41  38  40  1   
 42  40  41  2   
 43  41  42  1   
 44  41  51  1   
 45  42  43  1   
 46  42  47  2   
 47  43  44  2   
 48  44  45  1   
 49  44  46  1   
 50  47  48  1   
 51  48  49  1   
 52  48  50  1   
 53  48  51  1   
@<TRIPOS>SUBSTRUCTURE
  1 SAM  25 GROUP 4 B **** 0

# MOE 2022.02 (io_trps.svl 2020.11)
