@<TRIPOS>MOLECULE
5V9I.A
51 53 1 0 0 
SMALL
USER_CHARGES


@<TRIPOS>ATOM
  1 N       13.0930     2.9060    79.2180 N.4   1 SAM  -0.8530 
  2 H1      12.8513     3.8505    78.9543 H     1 SAM   0.4500 
  3 H2      14.0800     2.8567    79.4263 H     1 SAM   0.4500 
  4 H3      12.5627     2.6384    80.0349 H     1 SAM   0.4500 
  5 CA      12.7780     1.9870    78.1030 C.3   1 SAM   0.3170 
  6 HA      13.0414     0.9705    78.3952 H     1 SAM   0.0800 
  7 C       13.6430     2.2980    76.7950 C.2   1 SAM   0.9060 
  8 O       14.5140     3.1960    76.9060 O.co2 1 SAM  -0.9000 
  9 CB      11.2790     2.0760    77.8170 C.3   1 SAM  -0.1600 
 10 HB1     11.1091     1.8362    76.7674 H     1 SAM   0.0800 
 11 HB2     10.9457     3.0946    78.0155 H     1 SAM   0.0800 
 12 CG      10.4460     1.1020    78.6900 C.3   1 SAM  -0.1525 
 13 HG1      9.3893     1.3392    78.5668 H     1 SAM   0.0800 
 14 HG2     10.7297     1.2385    79.7335 H     1 SAM   0.0800 
 15 SD      10.7070    -0.6260    78.2410 S.3   1 SAM   0.9775 
 16 CE       9.0640    -1.1030    78.0020 C.3   1 SAM  -0.2325 
 17 HE1      8.7142    -0.7313    77.0389 H     1 SAM   0.0800 
 18 HE2      8.4457    -0.6879    78.7979 H     1 SAM   0.0800 
 19 HE3      8.9954    -2.1907    78.0184 H     1 SAM   0.0800 
 20 C5'     11.0480    -1.3380    79.8540 C.3   1 SAM  -0.1525 
 21 H5'1    10.7735    -2.3927    79.8327 H     1 SAM   0.0800 
 22 H5'2    10.4419    -0.8198    80.5971 H     1 SAM   0.0800 
 23 C4'     12.5150    -1.2260    80.2600 C.3   1 SAM   0.2000 
 24 H4'     13.0776    -1.5131    79.3716 H     1 SAM   0.0800 
 25 O4'     12.7510     0.1200    80.7430 O.3   1 SAM  -0.5600 
 26 C3'     12.9320    -2.1220    81.4220 C.3   1 SAM   0.2000 
 27 H3'     12.1327    -2.3218    82.1357 H     1 SAM   0.0800 
 28 O3'     13.2710    -3.4420    81.0280 O.3   1 SAM  -0.6800 
 29 H3'     13.5521    -3.9163    81.8139 H     1 SAM   0.4000 
 30 C2'     14.0830    -1.3240    82.0270 C.3   1 SAM   0.2000 
 31 H2'     14.3845    -1.6805    83.0119 H     1 SAM   0.0800 
 32 O2'     15.2460    -1.3660    81.2070 O.3   1 SAM  -0.6800 
 33 H2'     15.5484    -2.2767    81.1786 H     1 SAM   0.4000 
 34 C1'     13.5080     0.0860    81.9430 C.3   1 SAM   0.5691 
 35 H1'     14.3333     0.7973    81.9739 H     1 SAM   0.0800 
 36 OXT     13.4220     1.6290    75.7580 O.co2 1 SAM  -0.9000 
 37 N1      13.1240     0.9950    87.0170 N.2   1 SAM  -0.6610 
 38 C2      14.1650     0.6460    86.2500 C.2   1 SAM   0.6010 
 39 H2      15.1086     0.5398    86.7645 H     1 SAM   0.0600 
 40 N3      14.1950     0.4110    84.9330 N.2   1 SAM  -0.6610 
 41 C4      12.9780     0.5800    84.3870 C.2   1 SAM   0.5000 
 42 C5      11.8130     0.9380    85.0490 C.2   1 SAM   0.4500 
 43 C6      11.9080     1.1470    86.4420 C.2   1 SAM   0.6110 
 44 N6      10.8710     1.4740    87.2240 N.2   1 SAM  -0.2000 
 45 H62     11.0090     1.6092    88.2154 H     1 SAM   0.4000 
 46 H61      9.9510     1.5854    86.8224 H     1 SAM   0.4000 
 47 N7      10.7540     1.0370    84.1590 N.2   1 SAM  -0.6960 
 48 C8      11.2910     0.7410    83.0010 C.3   1 SAM   0.4551 
 49 H81     11.1514     1.5900    82.3318 H     1 SAM   0.0800 
 50 H82     10.7742    -0.1293    82.5964 H     1 SAM   0.0800 
 51 N9      12.6330     0.4560    83.0620 N.pl3 1 SAM  -0.7882 
@<TRIPOS>BOND
  1   1   2  1   
  2   1   3  1   
  3   1   4  1   
  4   1   5  1   
  5   5   6  1   
  6   5   7  1   
  7   5   9  1   
  8   7   8  ar  
  9   7  36  ar  
 10   9  10  1   
 11   9  11  1   
 12   9  12  1   
 13  12  13  1   
 14  12  14  1   
 15  12  15  1   
 16  15  16  1   
 17  15  20  1   
 18  16  17  1   
 19  16  18  1   
 20  16  19  1   
 21  20  21  1   
 22  20  22  1   
 23  20  23  1   
 24  23  24  1   
 25  23  25  1   
 26  23  26  1   
 27  25  34  1   
 28  26  27  1   
 29  26  28  1   
 30  26  30  1   
 31  28  29  1   
 32  30  31  1   
 33  30  32  1   
 34  30  34  1   
 35  32  33  1   
 36  34  35  1   
 37  34  51  1   
 38  37  38  2   
 39  37  43  1   
 40  38  39  1   
 41  38  40  1   
 42  40  41  2   
 43  41  42  1   
 44  41  51  1   
 45  42  43  1   
 46  42  47  2   
 47  43  44  2   
 48  44  45  1   
 49  44  46  1   
 50  47  48  1   
 51  48  49  1   
 52  48  50  1   
 53  48  51  1   
@<TRIPOS>SUBSTRUCTURE
  1 SAM  25 GROUP 4 A **** 0

# MOE 2022.02 (io_trps.svl 2020.11)
