# created with PyMOL 2.5.0
@<TRIPOS>MOLECULE
5V9I
27 29 1                 
SMALL
USER_CHARGES
@<TRIPOS>ATOM
1	   N	13.093	2.906	79.218	N.3	1	SAM1505	0.000	
2	  CA	12.778	1.987	78.103	C.3	1	SAM1505	0.000	
3	   C	13.643	2.298	76.795	C.2	1	SAM1505	0.000	
4	   O	14.514	3.196	76.906	O.co2	1	SAM1505	0.000	
5	  CB	11.279	2.076	77.817	C.3	1	SAM1505	0.000	
6	  CG	10.446	1.102	78.690	C.3	1	SAM1505	0.000	
7	  SD	10.707	-0.626	78.241	S.3	1	SAM1505	0.000	
8	  CE	9.064	-1.103	78.002	C.3	1	SAM1505	0.000	
9	 C5'	11.048	-1.338	79.854	C.3	1	SAM1505	0.000	
10	 C4'	12.515	-1.226	80.260	C.3	1	SAM1505	0.000	
11	 O4'	12.751	0.120	80.743	O.3	1	SAM1505	0.000	
12	 C3'	12.932	-2.122	81.422	C.3	1	SAM1505	0.000	
13	 O3'	13.271	-3.442	81.028	O.3	1	SAM1505	0.000	
14	 C2'	14.083	-1.324	82.027	C.3	1	SAM1505	0.000	
15	 O2'	15.246	-1.366	81.207	O.3	1	SAM1505	0.000	
16	 C1'	13.508	0.086	81.943	C.3	1	SAM1505	0.000	
17	 OXT	13.422	1.629	75.758	O.co2	1	SAM1505	0.000	
18	  N1	13.124	0.995	87.017	N.2	1	SAM1505	0.000	
19	  C2	14.165	0.646	86.250	C.2	1	SAM1505	0.000	
20	  N3	14.195	0.411	84.933	N.2	1	SAM1505	0.000	
21	  C4	12.978	0.580	84.387	C.2	1	SAM1505	0.000	
22	  C5	11.813	0.938	85.049	C.2	1	SAM1505	0.000	
23	  C6	11.908	1.147	86.442	C.2	1	SAM1505	0.000	
24	  N6	10.871	1.474	87.224	N.pl3	1	SAM1505	0.000	
25	  N7	10.754	1.037	84.159	N.2	1	SAM1505	0.000	
26	  C8	11.291	0.741	83.001	C.2	1	SAM1505	0.000	
27	  N9	12.633	0.456	83.062	N.2	1	SAM1505	0.000	
@<TRIPOS>BOND
1 1 2 1
2 2 3 1
3 2 5 1
4 3 4 ar
5 3 17 ar
6 5 6 1
7 6 7 1
8 7 8 1
9 7 9 1
10 9 10 1
11 10 11 1
12 10 12 1
13 11 16 1
14 12 13 1
15 12 14 1
16 14 15 1
17 14 16 1
18 16 27 1
19 18 19 ar
20 18 23 ar
21 19 20 ar
22 20 21 ar
23 21 22 ar
24 21 27 ar
25 22 23 ar
26 22 25 ar
27 23 24 1
28 25 26 ar
29 26 27 ar
@<TRIPOS>SUBSTRUCTURE
1	SAM1505	1	GROUP	1 A	SAM
