# created with PyMOL 2.5.0
@<TRIPOS>MOLECULE
1EJ0
27 29 1                 
SMALL
USER_CHARGES
@<TRIPOS>ATOM
1	   N	0.910	40.722	12.745	N.3	1	SAM301	0.000	
2	  CA	-0.425	40.659	12.108	C.3	1	SAM301	0.000	
3	   C	-0.845	42.029	11.611	C.2	1	SAM301	0.000	
4	   O	-0.122	43.002	11.874	O.co2	1	SAM301	0.000	
5	  CB	-1.427	40.109	13.112	C.3	1	SAM301	0.000	
6	  CG	-1.240	38.632	13.275	C.3	1	SAM301	0.000	
7	  SD	-2.424	37.800	14.361	S.3	1	SAM301	0.000	
8	  CE	-1.992	38.344	16.013	C.3	1	SAM301	0.000	
9	 C5'	-1.805	36.150	14.419	C.3	1	SAM301	0.000	
10	 C4'	-1.891	35.384	13.123	C.3	1	SAM301	0.000	
11	 O4'	-1.189	34.122	13.270	O.3	1	SAM301	0.000	
12	 C3'	-3.333	34.961	12.767	C.3	1	SAM301	0.000	
13	 O3'	-3.675	35.705	11.574	O.3	1	SAM301	0.000	
14	 C2'	-3.195	33.491	12.354	C.3	1	SAM301	0.000	
15	 O2'	-3.963	32.956	11.288	O.3	1	SAM301	0.000	
16	 C1'	-1.679	33.290	12.269	C.3	1	SAM301	0.000	
17	 OXT	-1.944	42.058	10.958	O.co2	1	SAM301	0.000	
18	  N1	0.483	29.224	10.024	N.2	1	SAM301	0.000	
19	  C2	0.374	30.507	9.657	C.2	1	SAM301	0.000	
20	  N3	-0.155	31.535	10.327	N.2	1	SAM301	0.000	
21	  C4	-0.620	31.149	11.533	C.2	1	SAM301	0.000	
22	  C5	-0.578	29.877	12.049	C.2	1	SAM301	0.000	
23	  C6	-0.003	28.874	11.237	C.2	1	SAM301	0.000	
24	  N6	0.063	27.578	11.613	N.pl3	1	SAM301	0.000	
25	  N7	-1.164	29.841	13.313	N.2	1	SAM301	0.000	
26	  C8	-1.526	31.079	13.527	C.2	1	SAM301	0.000	
27	  N9	-1.279	31.913	12.471	N.2	1	SAM301	0.000	
@<TRIPOS>BOND
1 1 2 1
2 2 3 1
3 2 5 1
4 3 4 ar
5 3 17 ar
6 5 6 1
7 6 7 1
8 7 8 1
9 7 9 1
10 9 10 1
11 10 11 1
12 10 12 1
13 11 16 1
14 12 13 1
15 12 14 1
16 14 15 1
17 14 16 1
18 16 27 1
19 18 19 ar
20 18 23 ar
21 19 20 ar
22 20 21 ar
23 21 22 ar
24 21 27 ar
25 22 23 ar
26 22 25 ar
27 23 24 1
28 25 26 ar
29 26 27 ar
@<TRIPOS>SUBSTRUCTURE
1	SAM301	1	GROUP	1 A	SAM
