# created with PyMOL 2.4.0
@<TRIPOS>MOLECULE
temp
50 52 1                 
SMALL
USER_CHARGES
@<TRIPOS>ATOM
1	   N	0.910	40.722	12.745	N.4	1	SAM1	0.000	
2	  CA	-0.425	40.659	12.108	C.3	1	SAM1	0.000	
3	   C	-0.845	42.029	11.611	C.2	1	SAM1	0.000	
4	   O	-0.122	43.002	11.874	O.co2	1	SAM1	0.000	
5	  CB	-1.427	40.109	13.112	C.3	1	SAM1	0.000	
6	  CG	-1.240	38.632	13.275	C.3	1	SAM1	0.000	
7	  SD	-2.424	37.800	14.361	S.3	1	SAM1	0.000	
8	  CE	-1.992	38.344	16.013	C.3	1	SAM1	0.000	
9	 C5'	-1.805	36.150	14.419	C.3	1	SAM1	0.000	
10	 C4'	-1.891	35.384	13.123	C.3	1	SAM1	0.000	
11	 O4'	-1.189	34.122	13.270	O.3	1	SAM1	0.000	
12	 C3'	-3.333	34.961	12.767	C.3	1	SAM1	0.000	
13	 O3'	-3.675	35.705	11.574	O.3	1	SAM1	0.000	
14	 C2'	-3.195	33.491	12.354	C.3	1	SAM1	0.000	
15	 O2'	-3.963	32.956	11.288	O.3	1	SAM1	0.000	
16	 C1'	-1.679	33.290	12.269	C.3	1	SAM1	0.000	
17	 OXT	-1.944	42.058	10.958	O.co2	1	SAM1	0.000	
18	  N1	0.483	29.224	10.024	N.2	1	SAM1	0.000	
19	  C2	0.374	30.507	9.657	C.2	1	SAM1	0.000	
20	  N3	-0.155	31.535	10.327	N.2	1	SAM1	0.000	
21	  C4	-0.620	31.149	11.533	C.2	1	SAM1	0.000	
22	  C5	-0.578	29.877	12.049	C.2	1	SAM1	0.000	
23	  C6	-0.003	28.874	11.237	C.2	1	SAM1	0.000	
24	  N6	0.063	27.578	11.613	N.pl3	1	SAM1	0.000	
25	  N7	-1.164	29.841	13.313	N.2	1	SAM1	0.000	
26	  C8	-1.526	31.079	13.527	C.2	1	SAM1	0.000	
27	  N9	-1.279	31.913	12.471	N.2	1	SAM1	0.000	
28	  HA	-0.387	39.996	11.243	 H	1	SAM1	0.000	
29	 HB1	-2.438	40.307	12.756	 H	1	SAM1	0.000	
30	 HB2	-1.278	40.599	14.074	 H	1	SAM1	0.000	
31	 HG1	-0.242	38.465	13.679	 H	1	SAM1	0.000	
32	 HG2	-1.314	38.175	12.288	 H	1	SAM1	0.000	
33	 HE1	-2.313	39.376	16.151	 H	1	SAM1	0.000	
34	 HE2	-0.912	38.278	16.146	 H	1	SAM1	0.000	
35	 HE3	-2.488	37.708	16.746	 H	1	SAM1	0.000	
36	  H1	0.872	41.336	13.546	 H	1	SAM1	0.000	
37	  H2	1.584	41.076	12.081	 H	1	SAM1	0.000	
38	  H2	0.770	30.745	8.681	 H	1	SAM1	0.000	
39	  H3	1.185	39.797	13.043	 H	1	SAM1	0.000	
40	  H8	-1.977	31.412	14.450	 H	1	SAM1	0.000	
41	 H1'	-1.288	33.529	11.280	 H	1	SAM1	0.000	
42	 H2'	-3.691	32.868	13.098	 H	1	SAM1	0.000	
43	 H2'	-3.678	33.388	10.479	 H	1	SAM1	0.000	
44	 H3'	-4.060	35.119	13.564	 H	1	SAM1	0.000	
45	 H3'	-4.538	35.403	11.281	 H	1	SAM1	0.000	
46	 H4'	-1.481	36.047	12.361	 H	1	SAM1	0.000	
47	 H61	-0.308	27.292	12.508	 H	1	SAM1	0.000	
48	 H62	0.484	26.895	10.999	 H	1	SAM1	0.000	
49	H5'1	-2.373	35.603	15.172	 H	1	SAM1	0.000	
50	H5'2	-0.757	36.194	14.716	 H	1	SAM1	0.000	
@<TRIPOS>BOND
1 1 2 1
2 1 36 1
3 1 37 1
4 1 39 1
5 2 3 1
6 2 5 1
7 2 28 1
8 3 4 ar
9 3 17 ar
10 5 6 1
11 5 29 1
12 5 30 1
13 6 7 1
14 6 31 1
15 6 32 1
16 7 8 1
17 7 9 1
18 8 33 1
19 8 34 1
20 8 35 1
21 9 10 1
22 9 49 1
23 9 50 1
24 10 11 1
25 10 12 1
26 10 46 1
27 11 16 1
28 12 13 1
29 12 14 1
30 12 44 1
31 13 45 1
32 14 15 1
33 14 16 1
34 14 42 1
35 15 43 1
36 16 27 1
37 16 41 1
38 18 19 ar
39 18 23 ar
40 19 20 ar
41 19 38 1
42 20 21 ar
43 21 22 ar
44 21 27 ar
45 22 23 ar
46 22 25 ar
47 23 24 1
48 24 47 1
49 24 48 1
50 25 26 ar
51 26 27 ar
52 26 40 1
@<TRIPOS>SUBSTRUCTURE
1	SAM1	1	GROUP	1 A	SAM
