@<TRIPOS>MOLECULE
1EJ0.A
51 53 1 0 0 
SMALL
USER_CHARGES


@<TRIPOS>ATOM
  1 N        0.9100    40.7220    12.7450 N.4   1 SAM  -0.8530 
  2 H1       0.8723    41.3363    13.5458 H     1 SAM   0.4500 
  3 H2       1.5836    41.0757    12.0808 H     1 SAM   0.4500 
  4 H3       1.1848    39.7969    13.0430 H     1 SAM   0.4500 
  5 CA      -0.4250    40.6590    12.1080 C.3   1 SAM   0.3170 
  6 HA      -0.3866    39.9964    11.2434 H     1 SAM   0.0800 
  7 C       -0.8450    42.0290    11.6110 C.2   1 SAM   0.9060 
  8 O       -0.1220    43.0020    11.8740 O.co2 1 SAM  -0.9000 
  9 CB      -1.4270    40.1090    13.1120 C.3   1 SAM  -0.1600 
 10 HB1     -2.4382    40.3066    12.7563 H     1 SAM   0.0800 
 11 HB2     -1.2781    40.5989    14.0742 H     1 SAM   0.0800 
 12 CG      -1.2400    38.6320    13.2750 C.3   1 SAM  -0.1525 
 13 HG1     -0.2416    38.4645    13.6789 H     1 SAM   0.0800 
 14 HG2     -1.3140    38.1752    12.2881 H     1 SAM   0.0800 
 15 SD      -2.4240    37.8000    14.3610 S.3   1 SAM   0.9775 
 16 CE      -1.9920    38.3440    16.0130 C.3   1 SAM  -0.2325 
 17 HE1     -2.3130    39.3765    16.1511 H     1 SAM   0.0800 
 18 HE2     -0.9122    38.2783    16.1464 H     1 SAM   0.0800 
 19 HE3     -2.4881    37.7081    16.7463 H     1 SAM   0.0800 
 20 C5'     -1.8050    36.1500    14.4190 C.3   1 SAM  -0.1525 
 21 H5'1    -2.3731    35.6034    15.1717 H     1 SAM   0.0800 
 22 H5'2    -0.7570    36.1936    14.7156 H     1 SAM   0.0800 
 23 C4'     -1.8910    35.3840    13.1230 C.3   1 SAM   0.2000 
 24 H4'     -1.4809    36.0469    12.3611 H     1 SAM   0.0800 
 25 O4'     -1.1890    34.1220    13.2700 O.3   1 SAM  -0.5600 
 26 C3'     -3.3330    34.9610    12.7670 C.3   1 SAM   0.2000 
 27 H3'     -4.0598    35.1186    13.5639 H     1 SAM   0.0800 
 28 O3'     -3.6750    35.7050    11.5740 O.3   1 SAM  -0.6800 
 29 H3'     -4.5378    35.4029    11.2808 H     1 SAM   0.4000 
 30 C2'     -3.1950    33.4910    12.3540 C.3   1 SAM   0.2000 
 31 H2'     -3.6910    32.8676    13.0979 H     1 SAM   0.0800 
 32 O2'     -3.9630    32.9560    11.2880 O.3   1 SAM  -0.6800 
 33 H2'     -3.6780    33.3881    10.4795 H     1 SAM   0.4000 
 34 C1'     -1.6790    33.2900    12.2690 C.3   1 SAM   0.5691 
 35 H1'     -1.2884    33.5295    11.2800 H     1 SAM   0.0800 
 36 OXT     -1.9440    42.0580    10.9580 O.co2 1 SAM  -0.9000 
 37 N1       0.4830    29.2240    10.0240 N.2   1 SAM  -0.6610 
 38 C2       0.3740    30.5070     9.6570 C.2   1 SAM   0.6010 
 39 H2       0.7699    30.7448     8.6807 H     1 SAM   0.0600 
 40 N3      -0.1550    31.5350    10.3270 N.2   1 SAM  -0.6610 
 41 C4      -0.6200    31.1490    11.5330 C.2   1 SAM   0.5000 
 42 C5      -0.5780    29.8770    12.0490 C.2   1 SAM   0.4500 
 43 C6      -0.0030    28.8740    11.2370 C.2   1 SAM   0.6110 
 44 N6       0.0630    27.5780    11.6130 N.2   1 SAM  -0.2000 
 45 H62      0.4835    26.8949    10.9993 H     1 SAM   0.4000 
 46 H61     -0.3081    27.2923    12.5078 H     1 SAM   0.4000 
 47 N7      -1.1640    29.8410    13.3130 N.2   1 SAM  -0.6960 
 48 C8      -1.5260    31.0790    13.5270 C.3   1 SAM   0.4551 
 49 H81     -0.9820    31.4518    14.3949 H     1 SAM   0.0800 
 50 H82     -2.5959    31.0940    13.7348 H     1 SAM   0.0800 
 51 N9      -1.2790    31.9130    12.4710 N.pl3 1 SAM  -0.7882 
@<TRIPOS>BOND
  1   1   2  1   
  2   1   3  1   
  3   1   4  1   
  4   1   5  1   
  5   5   6  1   
  6   5   7  1   
  7   5   9  1   
  8   7   8  ar  
  9   7  36  ar  
 10   9  10  1   
 11   9  11  1   
 12   9  12  1   
 13  12  13  1   
 14  12  14  1   
 15  12  15  1   
 16  15  16  1   
 17  15  20  1   
 18  16  17  1   
 19  16  18  1   
 20  16  19  1   
 21  20  21  1   
 22  20  22  1   
 23  20  23  1   
 24  23  24  1   
 25  23  25  1   
 26  23  26  1   
 27  25  34  1   
 28  26  27  1   
 29  26  28  1   
 30  26  30  1   
 31  28  29  1   
 32  30  31  1   
 33  30  32  1   
 34  30  34  1   
 35  32  33  1   
 36  34  35  1   
 37  34  51  1   
 38  37  38  2   
 39  37  43  1   
 40  38  39  1   
 41  38  40  1   
 42  40  41  2   
 43  41  42  1   
 44  41  51  1   
 45  42  43  1   
 46  42  47  2   
 47  43  44  2   
 48  44  45  1   
 49  44  46  1   
 50  47  48  1   
 51  48  49  1   
 52  48  50  1   
 53  48  51  1   
@<TRIPOS>SUBSTRUCTURE
  1 SAM  23 GROUP 4 A **** 0

# MOE 2022.02 (io_trps.svl 2020.11)
