# created with PyMOL 2.4.0
@<TRIPOS>MOLECULE
temp
50 52 1                 
SMALL
USER_CHARGES
@<TRIPOS>ATOM
1	   N	33.083	38.611	50.100	N.4	1	SAM1	0.000	
2	  CA	33.204	37.150	50.341	C.3	1	SAM1	0.000	
3	   C	34.668	36.714	50.556	C.2	1	SAM1	0.000	
4	   O	35.571	37.515	50.714	O.co2	1	SAM1	0.000	
5	  CB	32.478	36.356	49.263	C.3	1	SAM1	0.000	
6	  CG	30.989	36.138	49.529	C.3	1	SAM1	0.000	
7	  SD	30.609	35.344	51.127	S.3	1	SAM1	0.000	
8	  CE	29.418	34.173	50.396	C.3	1	SAM1	0.000	
9	 C5'	29.506	36.536	51.956	C.3	1	SAM1	0.000	
10	 C4'	30.266	37.540	52.844	C.3	1	SAM1	0.000	
11	 O4'	30.855	38.547	52.026	O.3	1	SAM1	0.000	
12	 C3'	29.434	38.272	53.864	C.3	1	SAM1	0.000	
13	 O3'	29.383	37.651	55.124	O.3	1	SAM1	0.000	
14	 C2'	30.153	39.600	53.973	C.3	1	SAM1	0.000	
15	 O2'	31.319	39.457	54.745	O.3	1	SAM1	0.000	
16	 C1'	30.671	39.837	52.568	C.3	1	SAM1	0.000	
17	 OXT	34.997	35.549	50.578	O.co2	1	SAM1	0.000	
18	  N1	28.071	44.282	51.959	N.2	1	SAM1	0.000	
19	  C2	28.990	43.969	52.931	C.2	1	SAM1	0.000	
20	  N3	29.599	42.734	52.919	N.2	1	SAM1	0.000	
21	  C4	29.242	41.827	51.971	C.2	1	SAM1	0.000	
22	  C5	28.311	42.125	50.974	C.2	1	SAM1	0.000	
23	  C6	27.696	43.386	50.968	C.2	1	SAM1	0.000	
24	  N6	26.795	43.743	50.036	N.pl3	1	SAM1	0.000	
25	  N7	28.181	41.044	50.197	N.2	1	SAM1	0.000	
26	  C8	28.996	40.089	50.650	C.2	1	SAM1	0.000	
27	  N9	29.662	40.560	51.756	N.2	1	SAM1	0.000	
28	  HA	32.701	36.919	51.280	 H	1	SAM1	0.000	
29	 HB1	32.955	35.380	49.180	 H	1	SAM1	0.000	
30	 HB2	32.580	36.892	48.319	 H	1	SAM1	0.000	
31	 HG1	30.590	35.508	48.734	 H	1	SAM1	0.000	
32	 HG2	30.494	37.109	49.506	 H	1	SAM1	0.000	
33	 HE1	29.958	33.393	49.860	 H	1	SAM1	0.000	
34	 HE2	28.765	34.704	49.704	 H	1	SAM1	0.000	
35	 HE3	28.819	33.722	51.187	 H	1	SAM1	0.000	
36	  H1	33.543	38.848	49.233	 H	1	SAM1	0.000	
37	  H2	33.517	39.115	50.860	 H	1	SAM1	0.000	
38	  H2	29.233	44.687	53.700	 H	1	SAM1	0.000	
39	  H3	32.107	38.863	50.043	 H	1	SAM1	0.000	
40	  H8	29.113	39.106	50.218	 H	1	SAM1	0.000	
41	 H1'	31.583	40.433	52.573	 H	1	SAM1	0.000	
42	 H2'	29.503	40.368	54.393	 H	1	SAM1	0.000	
43	 H2'	31.051	39.206	55.632	 H	1	SAM1	0.000	
44	 H3'	28.389	38.325	53.557	 H	1	SAM1	0.000	
45	 H3'	28.851	38.206	55.700	 H	1	SAM1	0.000	
46	 H4'	30.986	36.924	53.383	 H	1	SAM1	0.000	
47	 H61	26.539	43.093	49.306	 H	1	SAM1	0.000	
48	 H62	26.374	44.661	50.066	 H	1	SAM1	0.000	
49	H5'1	28.803	35.984	52.579	 H	1	SAM1	0.000	
50	H5'2	28.958	37.091	51.194	 H	1	SAM1	0.000	
@<TRIPOS>BOND
1 1 2 1
2 1 36 1
3 1 37 1
4 1 39 1
5 2 3 1
6 2 5 1
7 2 28 1
8 3 4 ar
9 3 17 ar
10 5 6 1
11 5 29 1
12 5 30 1
13 6 7 1
14 6 31 1
15 6 32 1
16 7 8 1
17 7 9 1
18 8 33 1
19 8 34 1
20 8 35 1
21 9 10 1
22 9 49 1
23 9 50 1
24 10 11 1
25 10 12 1
26 10 46 1
27 11 16 1
28 12 13 1
29 12 14 1
30 12 44 1
31 13 45 1
32 14 15 1
33 14 16 1
34 14 42 1
35 15 43 1
36 16 27 1
37 16 41 1
38 18 19 ar
39 18 23 ar
40 19 20 ar
41 19 38 1
42 20 21 ar
43 21 22 ar
44 21 27 ar
45 22 23 ar
46 22 25 ar
47 23 24 1
48 24 47 1
49 24 48 1
50 25 26 ar
51 26 27 ar
52 26 40 1
@<TRIPOS>SUBSTRUCTURE
1	SAM1	1	GROUP	1 A	SAM
