@<TRIPOS>MOLECULE
2R3A.A
51 53 1 0 0 
SMALL
USER_CHARGES


@<TRIPOS>ATOM
  1 N       33.0830    38.6110    50.1000 N.4   1 SAM  -0.8530 
  2 H1      33.5428    38.8483    49.2326 H     1 SAM   0.4500 
  3 H2      33.5174    39.1147    50.8601 H     1 SAM   0.4500 
  4 H3      32.1066    38.8632    50.0435 H     1 SAM   0.4500 
  5 CA      33.2040    37.1500    50.3410 C.3   1 SAM   0.3170 
  6 HA      32.7014    36.9193    51.2803 H     1 SAM   0.0800 
  7 C       34.6680    36.7140    50.5560 C.2   1 SAM   0.9060 
  8 O       35.5710    37.5150    50.7140 O.co2 1 SAM  -0.9000 
  9 CB      32.4780    36.3560    49.2630 C.3   1 SAM  -0.1600 
 10 HB1     32.9553    35.3796    49.1801 H     1 SAM   0.0800 
 11 HB2     32.5801    36.8916    48.3192 H     1 SAM   0.0800 
 12 CG      30.9890    36.1380    49.5290 C.3   1 SAM  -0.1525 
 13 HG1     30.5905    35.5082    48.7336 H     1 SAM   0.0800 
 14 HG2     30.4942    37.1089    49.5060 H     1 SAM   0.0800 
 15 SD      30.6090    35.3440    51.1270 S.3   1 SAM   0.9775 
 16 CE      29.4180    34.1730    50.3960 C.3   1 SAM  -0.2325 
 17 HE1     29.9581    33.3926    49.8599 H     1 SAM   0.0800 
 18 HE2     28.7647    34.7040    49.7036 H     1 SAM   0.0800 
 19 HE3     28.8191    33.7223    51.1874 H     1 SAM   0.0800 
 20 C5'     29.5060    36.5360    51.9560 C.3   1 SAM  -0.1525 
 21 H5'1    28.8027    35.9836    52.5792 H     1 SAM   0.0800 
 22 H5'2    28.9583    37.0908    51.1942 H     1 SAM   0.0800 
 23 C4'     30.2660    37.5400    52.8440 C.3   1 SAM   0.2000 
 24 H4'     30.9859    36.9238    53.3828 H     1 SAM   0.0800 
 25 O4'     30.8550    38.5470    52.0260 O.3   1 SAM  -0.5600 
 26 C3'     29.4340    38.2720    53.8640 C.3   1 SAM   0.2000 
 27 H3'     28.3895    38.3254    53.5571 H     1 SAM   0.0800 
 28 O3'     29.3830    37.6510    55.1240 O.3   1 SAM  -0.6800 
 29 H3'     28.8512    38.2055    55.6996 H     1 SAM   0.4000 
 30 C2'     30.1530    39.6000    53.9730 C.3   1 SAM   0.2000 
 31 H2'     29.5030    40.3678    54.3926 H     1 SAM   0.0800 
 32 O2'     31.3190    39.4570    54.7450 O.3   1 SAM  -0.6800 
 33 H2'     31.0509    39.2063    55.6320 H     1 SAM   0.4000 
 34 C1'     30.6710    39.8370    52.5680 C.3   1 SAM   0.5691 
 35 H1'     31.5833    40.4335    52.5729 H     1 SAM   0.0800 
 36 OXT     34.9970    35.5490    50.5780 O.co2 1 SAM  -0.9000 
 37 N1      28.0710    44.2820    51.9590 N.2   1 SAM  -0.6610 
 38 C2      28.9900    43.9690    52.9310 C.2   1 SAM   0.6010 
 39 H2      29.2334    44.6872    53.7000 H     1 SAM   0.0600 
 40 N3      29.5990    42.7340    52.9190 N.2   1 SAM  -0.6610 
 41 C4      29.2420    41.8270    51.9710 C.2   1 SAM   0.5000 
 42 C5      28.3110    42.1250    50.9740 C.2   1 SAM   0.4500 
 43 C6      27.6960    43.3860    50.9680 C.2   1 SAM   0.6110 
 44 N6      26.7950    43.7430    50.0360 N.2   1 SAM  -0.2000 
 45 H62     26.3742    44.6607    50.0658 H     1 SAM   0.4000 
 46 H61     26.5390    43.0935    49.3061 H     1 SAM   0.4000 
 47 N7      28.1810    41.0440    50.1970 N.2   1 SAM  -0.6960 
 48 C8      28.9960    40.0890    50.6500 C.3   1 SAM   0.4551 
 49 H81     29.7153    39.8239    49.8751 H     1 SAM   0.0800 
 50 H82     28.4131    39.2088    50.9212 H     1 SAM   0.0800 
 51 N9      29.6620    40.5600    51.7560 N.pl3 1 SAM  -0.7882 
@<TRIPOS>BOND
  1   1   2  1   
  2   1   3  1   
  3   1   4  1   
  4   1   5  1   
  5   5   6  1   
  6   5   7  1   
  7   5   9  1   
  8   7   8  ar  
  9   7  36  ar  
 10   9  10  1   
 11   9  11  1   
 12   9  12  1   
 13  12  13  1   
 14  12  14  1   
 15  12  15  1   
 16  15  16  1   
 17  15  20  1   
 18  16  17  1   
 19  16  18  1   
 20  16  19  1   
 21  20  21  1   
 22  20  22  1   
 23  20  23  1   
 24  23  24  1   
 25  23  25  1   
 26  23  26  1   
 27  25  34  1   
 28  26  27  1   
 29  26  28  1   
 30  26  30  1   
 31  28  29  1   
 32  30  31  1   
 33  30  32  1   
 34  30  34  1   
 35  32  33  1   
 36  34  35  1   
 37  34  51  1   
 38  37  38  2   
 39  37  43  1   
 40  38  39  1   
 41  38  40  1   
 42  40  41  2   
 43  41  42  1   
 44  41  51  1   
 45  42  43  1   
 46  42  47  2   
 47  43  44  2   
 48  44  45  1   
 49  44  46  1   
 50  47  48  1   
 51  48  49  1   
 52  48  50  1   
 53  48  51  1   
@<TRIPOS>SUBSTRUCTURE
  1 SAM  25 GROUP 4 A **** 0

# MOE 2022.02 (io_trps.svl 2020.11)
