# created with PyMOL 2.5.0
@<TRIPOS>MOLECULE
2R3A
27 29 1                 
SMALL
USER_CHARGES
@<TRIPOS>ATOM
1	   N	33.083	38.611	50.100	N.3	1	SAM304	0.000	
2	  CA	33.204	37.150	50.341	C.3	1	SAM304	0.000	
3	   C	34.668	36.714	50.556	C.2	1	SAM304	0.000	
4	   O	35.571	37.515	50.714	O.co2	1	SAM304	0.000	
5	  CB	32.478	36.356	49.263	C.3	1	SAM304	0.000	
6	  CG	30.989	36.138	49.529	C.3	1	SAM304	0.000	
7	  SD	30.609	35.344	51.127	S.3	1	SAM304	0.000	
8	  CE	29.418	34.173	50.396	C.3	1	SAM304	0.000	
9	 C5'	29.506	36.536	51.956	C.3	1	SAM304	0.000	
10	 C4'	30.266	37.540	52.844	C.3	1	SAM304	0.000	
11	 O4'	30.855	38.547	52.026	O.3	1	SAM304	0.000	
12	 C3'	29.434	38.272	53.864	C.3	1	SAM304	0.000	
13	 O3'	29.383	37.651	55.124	O.3	1	SAM304	0.000	
14	 C2'	30.153	39.600	53.973	C.3	1	SAM304	0.000	
15	 O2'	31.319	39.457	54.745	O.3	1	SAM304	0.000	
16	 C1'	30.671	39.837	52.568	C.3	1	SAM304	0.000	
17	 OXT	34.997	35.549	50.578	O.co2	1	SAM304	0.000	
18	  N1	28.071	44.282	51.959	N.2	1	SAM304	0.000	
19	  C2	28.990	43.969	52.931	C.2	1	SAM304	0.000	
20	  N3	29.599	42.734	52.919	N.2	1	SAM304	0.000	
21	  C4	29.242	41.827	51.971	C.2	1	SAM304	0.000	
22	  C5	28.311	42.125	50.974	C.2	1	SAM304	0.000	
23	  C6	27.696	43.386	50.968	C.2	1	SAM304	0.000	
24	  N6	26.795	43.743	50.036	N.pl3	1	SAM304	0.000	
25	  N7	28.181	41.044	50.197	N.2	1	SAM304	0.000	
26	  C8	28.996	40.089	50.650	C.2	1	SAM304	0.000	
27	  N9	29.662	40.560	51.756	N.2	1	SAM304	0.000	
@<TRIPOS>BOND
1 1 2 1
2 2 3 1
3 2 5 1
4 3 4 ar
5 3 17 ar
6 5 6 1
7 6 7 1
8 7 8 1
9 7 9 1
10 9 10 1
11 10 11 1
12 10 12 1
13 11 16 1
14 12 13 1
15 12 14 1
16 14 15 1
17 14 16 1
18 16 27 1
19 18 19 ar
20 18 23 ar
21 19 20 ar
22 20 21 ar
23 21 22 ar
24 21 27 ar
25 22 23 ar
26 22 25 ar
27 23 24 1
28 25 26 ar
29 26 27 ar
@<TRIPOS>SUBSTRUCTURE
1	SAM304	1	GROUP	1 A	SAM
