@<TRIPOS>MOLECULE
1N2X.A
51 53 1 0 0 
SMALL
USER_CHARGES


@<TRIPOS>ATOM
  1 N      -44.1230   -13.5680    -2.1020 N.4   1 SAM  -0.8530 
  2 H1     -44.8727   -13.0426    -2.5286 H     1 SAM   0.4500 
  3 H2     -44.5061   -14.3635    -1.6116 H     1 SAM   0.4500 
  4 H3     -43.4866   -13.8884    -2.8178 H     1 SAM   0.4500 
  5 CA     -43.4060   -12.7150    -1.1600 C.3   1 SAM   0.3170 
  6 HA     -42.6024   -13.2983    -0.7106 H     1 SAM   0.0800 
  7 C      -44.3360   -12.2420    -0.0350 C.2   1 SAM   0.9060 
  8 O      -43.8130   -11.7340     0.9800 O.co2 1 SAM  -0.9000 
  9 CB     -42.7880   -11.5090    -1.8960 C.3   1 SAM  -0.1600 
 10 HB1    -42.3840   -10.8243    -1.1503 H     1 SAM   0.0800 
 11 HB2    -43.5780   -11.0100    -2.4573 H     1 SAM   0.0800 
 12 CG     -41.6570   -11.8770    -2.8770 C.3   1 SAM  -0.1525 
 13 HG1    -42.0748   -12.5089    -3.6607 H     1 SAM   0.0800 
 14 HG2    -40.8955   -12.4326    -2.3297 H     1 SAM   0.0800 
 15 SD     -40.8550   -10.4240    -3.6710 S.3   1 SAM   0.9775 
 16 CE     -42.0240    -9.7180    -4.8550 C.3   1 SAM  -0.2325 
 17 HE1    -42.8105    -9.1885    -4.3173 H     1 SAM   0.0800 
 18 HE2    -42.4655   -10.5172    -5.4504 H     1 SAM   0.0800 
 19 HE3    -41.5010    -9.0225    -5.5113 H     1 SAM   0.0800 
 20 C5'    -39.6450   -11.2510    -4.8040 C.3   1 SAM  -0.1525 
 21 H5'1   -39.1934   -10.5090    -5.4625 H     1 SAM   0.0800 
 22 H5'2   -40.1587   -12.0033    -5.4026 H     1 SAM   0.0800 
 23 C4'    -38.5700   -11.9120    -3.9700 C.3   1 SAM   0.2000 
 24 H4'    -39.1479   -12.4475    -3.2167 H     1 SAM   0.0800 
 25 O4'    -37.7340   -12.7830    -4.7920 O.3   1 SAM  -0.5600 
 26 C3'    -37.6040   -10.9690    -3.2470 C.3   1 SAM   0.2000 
 27 H3'    -37.8824    -9.9179    -3.3237 H     1 SAM   0.0800 
 28 O3'    -37.5670   -11.2920    -1.8680 O.3   1 SAM  -0.6800 
 29 H3'    -36.9129   -10.7240    -1.4543 H     1 SAM   0.4000 
 30 C2'    -36.2480   -11.2820    -3.9000 C.3   1 SAM   0.2000 
 31 H2'    -36.0208   -10.6039    -4.7226 H     1 SAM   0.0800 
 32 O2'    -35.1500   -11.1410    -3.0210 O.3   1 SAM  -0.6800 
 33 H2'    -35.3011   -11.7224    -2.2721 H     1 SAM   0.4000 
 34 C1'    -36.4240   -12.7500    -4.2780 C.3   1 SAM   0.5691 
 35 H1'    -36.2274   -13.3829    -3.4126 H     1 SAM   0.0800 
 36 OXT    -45.5360   -12.5920    -0.0820 O.co2 1 SAM  -0.9000 
 37 N1     -33.8560   -16.8580    -6.0330 N.2   1 SAM  -0.6610 
 38 C2     -34.6660   -16.6840    -4.9660 C.2   1 SAM   0.6010 
 39 H2     -34.8340   -17.5616    -4.3595 H     1 SAM   0.0600 
 40 N3     -35.2910   -15.5670    -4.5570 N.2   1 SAM  -0.6610 
 41 C4     -35.0230   -14.5430    -5.3830 C.2   1 SAM   0.5000 
 42 C5     -34.2110   -14.5710    -6.5100 C.2   1 SAM   0.4500 
 43 C6     -33.6000   -15.7980    -6.8330 C.2   1 SAM   0.6110 
 44 N6     -32.7780   -15.9630    -7.8890 N.2   1 SAM  -0.2000 
 45 H62    -32.3673   -16.8672    -8.0728 H     1 SAM   0.4000 
 46 H61    -32.5729   -15.1824    -8.4962 H     1 SAM   0.4000 
 47 N7     -34.1670   -13.3230    -7.1150 N.2   1 SAM  -0.6960 
 48 C8     -34.9430   -12.5760    -6.3590 C.3   1 SAM   0.4551 
 49 H81    -35.7494   -12.1819    -6.9775 H     1 SAM   0.0800 
 50 H82    -34.3492   -11.7504    -5.9668 H     1 SAM   0.0800 
 51 N9     -35.5010   -13.2530    -5.2970 N.pl3 1 SAM  -0.7882 
@<TRIPOS>BOND
  1   1   2  1   
  2   1   3  1   
  3   1   4  1   
  4   1   5  1   
  5   5   6  1   
  6   5   7  1   
  7   5   9  1   
  8   7   8  ar  
  9   7  36  ar  
 10   9  10  1   
 11   9  11  1   
 12   9  12  1   
 13  12  13  1   
 14  12  14  1   
 15  12  15  1   
 16  15  16  1   
 17  15  20  1   
 18  16  17  1   
 19  16  18  1   
 20  16  19  1   
 21  20  21  1   
 22  20  22  1   
 23  20  23  1   
 24  23  24  1   
 25  23  25  1   
 26  23  26  1   
 27  25  34  1   
 28  26  27  1   
 29  26  28  1   
 30  26  30  1   
 31  28  29  1   
 32  30  31  1   
 33  30  32  1   
 34  30  34  1   
 35  32  33  1   
 36  34  35  1   
 37  34  51  1   
 38  37  38  2   
 39  37  43  1   
 40  38  39  1   
 41  38  40  1   
 42  40  41  2   
 43  41  42  1   
 44  41  51  1   
 45  42  43  1   
 46  42  47  2   
 47  43  44  2   
 48  44  45  1   
 49  44  46  1   
 50  47  48  1   
 51  48  49  1   
 52  48  50  1   
 53  48  51  1   
@<TRIPOS>SUBSTRUCTURE
  1 SAM  25 GROUP 4 A **** 0

# MOE 2022.02 (io_trps.svl 2020.11)
