# created with PyMOL 2.5.0
@<TRIPOS>MOLECULE
1N2X
27 29 1                 
SMALL
USER_CHARGES
@<TRIPOS>ATOM
1	   N	-44.123	-13.568	-2.102	N.3	1	SAM401	0.000	
2	  CA	-43.406	-12.715	-1.160	C.3	1	SAM401	0.000	
3	   C	-44.336	-12.242	-0.035	C.2	1	SAM401	0.000	
4	   O	-43.813	-11.734	0.980	O.co2	1	SAM401	0.000	
5	  CB	-42.788	-11.509	-1.896	C.3	1	SAM401	0.000	
6	  CG	-41.657	-11.877	-2.877	C.3	1	SAM401	0.000	
7	  SD	-40.855	-10.424	-3.671	S.3	1	SAM401	0.000	
8	  CE	-42.024	-9.718	-4.855	C.3	1	SAM401	0.000	
9	 C5'	-39.645	-11.251	-4.804	C.3	1	SAM401	0.000	
10	 C4'	-38.570	-11.912	-3.970	C.3	1	SAM401	0.000	
11	 O4'	-37.734	-12.783	-4.792	O.3	1	SAM401	0.000	
12	 C3'	-37.604	-10.969	-3.247	C.3	1	SAM401	0.000	
13	 O3'	-37.567	-11.292	-1.868	O.3	1	SAM401	0.000	
14	 C2'	-36.248	-11.282	-3.900	C.3	1	SAM401	0.000	
15	 O2'	-35.150	-11.141	-3.021	O.3	1	SAM401	0.000	
16	 C1'	-36.424	-12.750	-4.278	C.3	1	SAM401	0.000	
17	 OXT	-45.536	-12.592	-0.082	O.co2	1	SAM401	0.000	
18	  N1	-33.856	-16.858	-6.033	N.2	1	SAM401	0.000	
19	  C2	-34.666	-16.684	-4.966	C.2	1	SAM401	0.000	
20	  N3	-35.291	-15.567	-4.557	N.2	1	SAM401	0.000	
21	  C4	-35.023	-14.543	-5.383	C.2	1	SAM401	0.000	
22	  C5	-34.211	-14.571	-6.510	C.2	1	SAM401	0.000	
23	  C6	-33.600	-15.798	-6.833	C.2	1	SAM401	0.000	
24	  N6	-32.778	-15.963	-7.889	N.pl3	1	SAM401	0.000	
25	  N7	-34.167	-13.323	-7.115	N.2	1	SAM401	0.000	
26	  C8	-34.943	-12.576	-6.359	C.2	1	SAM401	0.000	
27	  N9	-35.501	-13.253	-5.297	N.2	1	SAM401	0.000	
@<TRIPOS>BOND
1 1 2 1
2 2 3 1
3 2 5 1
4 3 4 ar
5 3 17 ar
6 5 6 1
7 6 7 1
8 7 8 1
9 7 9 1
10 9 10 1
11 10 11 1
12 10 12 1
13 11 16 1
14 12 13 1
15 12 14 1
16 14 15 1
17 14 16 1
18 16 27 1
19 18 19 ar
20 18 23 ar
21 19 20 ar
22 20 21 ar
23 21 22 ar
24 21 27 ar
25 22 23 ar
26 22 25 ar
27 23 24 1
28 25 26 ar
29 26 27 ar
@<TRIPOS>SUBSTRUCTURE
1	SAM401	1	GROUP	1 A	SAM
