# created with PyMOL 2.4.0
@<TRIPOS>MOLECULE
temp
50 52 1                 
SMALL
USER_CHARGES
@<TRIPOS>ATOM
1	   N	-44.123	-13.568	-2.102	N.4	1	SAM1	0.000	
2	  CA	-43.406	-12.715	-1.160	C.3	1	SAM1	0.000	
3	   C	-44.336	-12.242	-0.035	C.2	1	SAM1	0.000	
4	   O	-43.813	-11.734	0.980	O.co2	1	SAM1	0.000	
5	  CB	-42.788	-11.509	-1.896	C.3	1	SAM1	0.000	
6	  CG	-41.657	-11.877	-2.877	C.3	1	SAM1	0.000	
7	  SD	-40.855	-10.424	-3.671	S.3	1	SAM1	0.000	
8	  CE	-42.024	-9.718	-4.855	C.3	1	SAM1	0.000	
9	 C5'	-39.645	-11.251	-4.804	C.3	1	SAM1	0.000	
10	 C4'	-38.570	-11.912	-3.970	C.3	1	SAM1	0.000	
11	 O4'	-37.734	-12.783	-4.792	O.3	1	SAM1	0.000	
12	 C3'	-37.604	-10.969	-3.247	C.3	1	SAM1	0.000	
13	 O3'	-37.567	-11.292	-1.868	O.3	1	SAM1	0.000	
14	 C2'	-36.248	-11.282	-3.900	C.3	1	SAM1	0.000	
15	 O2'	-35.150	-11.141	-3.021	O.3	1	SAM1	0.000	
16	 C1'	-36.424	-12.750	-4.278	C.3	1	SAM1	0.000	
17	 OXT	-45.536	-12.592	-0.082	O.co2	1	SAM1	0.000	
18	  N1	-33.856	-16.858	-6.033	N.2	1	SAM1	0.000	
19	  C2	-34.666	-16.684	-4.966	C.2	1	SAM1	0.000	
20	  N3	-35.291	-15.567	-4.557	N.2	1	SAM1	0.000	
21	  C4	-35.023	-14.543	-5.383	C.2	1	SAM1	0.000	
22	  C5	-34.211	-14.571	-6.510	C.2	1	SAM1	0.000	
23	  C6	-33.600	-15.798	-6.833	C.2	1	SAM1	0.000	
24	  N6	-32.778	-15.963	-7.889	N.pl3	1	SAM1	0.000	
25	  N7	-34.167	-13.323	-7.115	N.2	1	SAM1	0.000	
26	  C8	-34.943	-12.576	-6.359	C.2	1	SAM1	0.000	
27	  N9	-35.501	-13.253	-5.297	N.2	1	SAM1	0.000	
28	  HA	-42.602	-13.298	-0.711	 H	1	SAM1	0.000	
29	 HB1	-42.384	-10.824	-1.150	 H	1	SAM1	0.000	
30	 HB2	-43.578	-11.010	-2.457	 H	1	SAM1	0.000	
31	 HG1	-42.075	-12.509	-3.661	 H	1	SAM1	0.000	
32	 HG2	-40.896	-12.433	-2.330	 H	1	SAM1	0.000	
33	 HE1	-42.811	-9.189	-4.317	 H	1	SAM1	0.000	
34	 HE2	-42.465	-10.517	-5.450	 H	1	SAM1	0.000	
35	 HE3	-41.501	-9.023	-5.511	 H	1	SAM1	0.000	
36	  H1	-44.873	-13.043	-2.529	 H	1	SAM1	0.000	
37	  H2	-44.506	-14.363	-1.612	 H	1	SAM1	0.000	
38	  H2	-34.834	-17.562	-4.359	 H	1	SAM1	0.000	
39	  H3	-43.487	-13.888	-2.818	 H	1	SAM1	0.000	
40	  H8	-35.125	-11.529	-6.553	 H	1	SAM1	0.000	
41	 H1'	-36.227	-13.383	-3.413	 H	1	SAM1	0.000	
42	 H2'	-36.021	-10.604	-4.723	 H	1	SAM1	0.000	
43	 H2'	-35.114	-10.222	-2.747	 H	1	SAM1	0.000	
44	 H3'	-37.882	-9.918	-3.324	 H	1	SAM1	0.000	
45	 H3'	-36.913	-10.724	-1.454	 H	1	SAM1	0.000	
46	 H4'	-39.148	-12.448	-3.217	 H	1	SAM1	0.000	
47	 H61	-32.573	-15.182	-8.496	 H	1	SAM1	0.000	
48	 H62	-32.367	-16.867	-8.073	 H	1	SAM1	0.000	
49	H5'1	-39.193	-10.509	-5.463	 H	1	SAM1	0.000	
50	H5'2	-40.159	-12.003	-5.403	 H	1	SAM1	0.000	
@<TRIPOS>BOND
1 1 2 1
2 1 36 1
3 1 37 1
4 1 39 1
5 2 3 1
6 2 5 1
7 2 28 1
8 3 4 ar
9 3 17 ar
10 5 6 1
11 5 29 1
12 5 30 1
13 6 7 1
14 6 31 1
15 6 32 1
16 7 8 1
17 7 9 1
18 8 33 1
19 8 34 1
20 8 35 1
21 9 10 1
22 9 49 1
23 9 50 1
24 10 11 1
25 10 12 1
26 10 46 1
27 11 16 1
28 12 13 1
29 12 14 1
30 12 44 1
31 13 45 1
32 14 15 1
33 14 16 1
34 14 42 1
35 15 43 1
36 16 27 1
37 16 41 1
38 18 19 ar
39 18 23 ar
40 19 20 ar
41 19 38 1
42 20 21 ar
43 21 22 ar
44 21 27 ar
45 22 23 ar
46 22 25 ar
47 23 24 1
48 24 47 1
49 24 48 1
50 25 26 ar
51 26 27 ar
52 26 40 1
@<TRIPOS>SUBSTRUCTURE
1	SAM1	1	GROUP	1 A	SAM
