# created with PyMOL 2.5.0
@<TRIPOS>MOLECULE
3GCZ
27 29 1                 
SMALL
USER_CHARGES
@<TRIPOS>ATOM
1	   N	-12.757	12.109	-1.559	N.3	1	SAM4633	0.000	
2	  CA	-12.233	10.825	-0.992	C.3	1	SAM4633	0.000	
3	   C	-13.212	9.700	-1.310	C.2	1	SAM4633	0.000	
4	   O	-12.911	8.502	-1.136	O.co2	1	SAM4633	0.000	
5	  CB	-12.001	10.972	0.512	C.3	1	SAM4633	0.000	
6	  CG	-10.730	11.795	0.646	C.3	1	SAM4633	0.000	
7	  SD	-10.037	11.663	2.281	S.3	1	SAM4633	0.000	
8	  CE	-11.111	12.793	3.205	C.3	1	SAM4633	0.000	
9	 C5'	-8.567	12.684	2.103	C.3	1	SAM4633	0.000	
10	 C4'	-7.384	11.850	1.637	C.3	1	SAM4633	0.000	
11	 O4'	-6.355	12.782	1.429	O.3	1	SAM4633	0.000	
12	 C3'	-6.861	10.834	2.655	C.3	1	SAM4633	0.000	
13	 O3'	-6.918	9.512	2.148	O.3	1	SAM4633	0.000	
14	 C2'	-5.404	11.252	2.907	C.3	1	SAM4633	0.000	
15	 O2'	-4.495	10.163	3.051	O.3	1	SAM4633	0.000	
16	 C1'	-5.126	12.135	1.695	C.3	1	SAM4633	0.000	
17	 OXT	-14.331	10.004	-1.757	O.co2	1	SAM4633	0.000	
18	  N1	-1.160	14.606	-0.399	N.2	1	SAM4633	0.000	
19	  C2	-1.950	13.604	-0.963	C.2	1	SAM4633	0.000	
20	  N3	-2.968	13.055	-0.262	N.2	1	SAM4633	0.000	
21	  C4	-3.201	13.529	0.989	C.2	1	SAM4633	0.000	
22	  C5	-2.429	14.527	1.579	C.2	1	SAM4633	0.000	
23	  C6	-1.372	15.071	0.880	C.2	1	SAM4633	0.000	
24	  N6	-0.614	16.048	1.421	N.pl3	1	SAM4633	0.000	
25	  N7	-2.900	14.766	2.823	N.2	1	SAM4633	0.000	
26	  C8	-3.946	13.927	3.030	C.2	1	SAM4633	0.000	
27	  N9	-4.119	13.157	1.907	N.2	1	SAM4633	0.000	
@<TRIPOS>BOND
1 1 2 1
2 2 3 1
3 2 5 1
4 3 4 ar
5 3 17 ar
6 5 6 1
7 6 7 1
8 7 8 1
9 7 9 1
10 9 10 1
11 10 11 1
12 10 12 1
13 11 16 1
14 12 13 1
15 12 14 1
16 14 15 1
17 14 16 1
18 16 27 1
19 18 19 ar
20 18 23 ar
21 19 20 ar
22 20 21 ar
23 21 22 ar
24 21 27 ar
25 22 23 ar
26 22 25 ar
27 23 24 1
28 25 26 ar
29 26 27 ar
@<TRIPOS>SUBSTRUCTURE
1	SAM4633	1	GROUP	1 A	SAM
