# created with PyMOL 2.4.0
@<TRIPOS>MOLECULE
temp
50 52 1                 
SMALL
USER_CHARGES
@<TRIPOS>ATOM
1	   N	-12.757	12.109	-1.559	N.4	1	SAM1	0.000	
2	  CA	-12.233	10.825	-0.992	C.3	1	SAM1	0.000	
3	   C	-13.212	9.700	-1.310	C.2	1	SAM1	0.000	
4	   O	-12.911	8.502	-1.136	O.co2	1	SAM1	0.000	
5	  CB	-12.001	10.972	0.512	C.3	1	SAM1	0.000	
6	  CG	-10.730	11.795	0.646	C.3	1	SAM1	0.000	
7	  SD	-10.037	11.663	2.281	S.3	1	SAM1	0.000	
8	  CE	-11.111	12.793	3.205	C.3	1	SAM1	0.000	
9	 C5'	-8.567	12.684	2.103	C.3	1	SAM1	0.000	
10	 C4'	-7.384	11.850	1.637	C.3	1	SAM1	0.000	
11	 O4'	-6.355	12.782	1.429	O.3	1	SAM1	0.000	
12	 C3'	-6.861	10.834	2.655	C.3	1	SAM1	0.000	
13	 O3'	-6.918	9.512	2.148	O.3	1	SAM1	0.000	
14	 C2'	-5.404	11.252	2.907	C.3	1	SAM1	0.000	
15	 O2'	-4.495	10.163	3.051	O.3	1	SAM1	0.000	
16	 C1'	-5.126	12.135	1.695	C.3	1	SAM1	0.000	
17	 OXT	-14.331	10.004	-1.757	O.co2	1	SAM1	0.000	
18	  N1	-1.160	14.606	-0.399	N.2	1	SAM1	0.000	
19	  C2	-1.950	13.604	-0.963	C.2	1	SAM1	0.000	
20	  N3	-2.968	13.055	-0.262	N.2	1	SAM1	0.000	
21	  C4	-3.201	13.529	0.989	C.2	1	SAM1	0.000	
22	  C5	-2.429	14.527	1.579	C.2	1	SAM1	0.000	
23	  C6	-1.372	15.071	0.880	C.2	1	SAM1	0.000	
24	  N6	-0.614	16.048	1.421	N.pl3	1	SAM1	0.000	
25	  N7	-2.900	14.766	2.823	N.2	1	SAM1	0.000	
26	  C8	-3.946	13.927	3.030	C.2	1	SAM1	0.000	
27	  N9	-4.119	13.157	1.907	N.2	1	SAM1	0.000	
28	  HA	-11.273	10.579	-1.446	 H	1	SAM1	0.000	
29	 HB1	-11.873	9.994	0.975	 H	1	SAM1	0.000	
30	 HB2	-12.840	11.488	0.979	 H	1	SAM1	0.000	
31	 HG1	-10.962	12.840	0.443	 H	1	SAM1	0.000	
32	 HG2	-9.998	11.438	-0.079	 H	1	SAM1	0.000	
33	 HE1	-12.068	12.309	3.397	 H	1	SAM1	0.000	
34	 HE2	-11.273	13.699	2.621	 H	1	SAM1	0.000	
35	 HE3	-10.638	13.051	4.152	 H	1	SAM1	0.000	
36	  H1	-13.646	12.327	-1.132	 H	1	SAM1	0.000	
37	  H2	-12.877	12.012	-2.557	 H	1	SAM1	0.000	
38	  H2	-1.747	13.264	-1.968	 H	1	SAM1	0.000	
39	  H3	-12.101	12.853	-1.370	 H	1	SAM1	0.000	
40	  H8	-4.543	13.874	3.928	 H	1	SAM1	0.000	
41	 H1'	-4.743	11.510	0.888	 H	1	SAM1	0.000	
42	 H2'	-5.261	11.760	3.861	 H	1	SAM1	0.000	
43	 H2'	-4.541	9.638	2.248	 H	1	SAM1	0.000	
44	 H3'	-7.461	10.831	3.565	 H	1	SAM1	0.000	
45	 H3'	-6.554	8.928	2.818	 H	1	SAM1	0.000	
46	 H4'	-7.697	11.271	0.768	 H	1	SAM1	0.000	
47	 H61	-0.818	16.390	2.349	 H	1	SAM1	0.000	
48	 H62	0.157	16.437	0.898	 H	1	SAM1	0.000	
49	H5'1	-8.328	13.137	3.065	 H	1	SAM1	0.000	
50	H5'2	-8.762	13.467	1.371	 H	1	SAM1	0.000	
@<TRIPOS>BOND
1 1 2 1
2 1 36 1
3 1 37 1
4 1 39 1
5 2 3 1
6 2 5 1
7 2 28 1
8 3 4 ar
9 3 17 ar
10 5 6 1
11 5 29 1
12 5 30 1
13 6 7 1
14 6 31 1
15 6 32 1
16 7 8 1
17 7 9 1
18 8 33 1
19 8 34 1
20 8 35 1
21 9 10 1
22 9 49 1
23 9 50 1
24 10 11 1
25 10 12 1
26 10 46 1
27 11 16 1
28 12 13 1
29 12 14 1
30 12 44 1
31 13 45 1
32 14 15 1
33 14 16 1
34 14 42 1
35 15 43 1
36 16 27 1
37 16 41 1
38 18 19 ar
39 18 23 ar
40 19 20 ar
41 19 38 1
42 20 21 ar
43 21 22 ar
44 21 27 ar
45 22 23 ar
46 22 25 ar
47 23 24 1
48 24 47 1
49 24 48 1
50 25 26 ar
51 26 27 ar
52 26 40 1
@<TRIPOS>SUBSTRUCTURE
1	SAM1	1	GROUP	1 A	SAM
