@<TRIPOS>MOLECULE
3GCZ.A
51 53 1 0 0 
SMALL
USER_CHARGES


@<TRIPOS>ATOM
  1 N      -12.7570    12.1090    -1.5590 N.4   1 SAM  -0.8530 
  2 H1     -13.6460    12.3274    -1.1324 H     1 SAM   0.4500 
  3 H2     -12.8773    12.0120    -2.5571 H     1 SAM   0.4500 
  4 H3     -12.1009    12.8532    -1.3698 H     1 SAM   0.4500 
  5 CA     -12.2330    10.8250    -0.9920 C.3   1 SAM   0.3170 
  6 HA     -11.2729    10.5788    -1.4455 H     1 SAM   0.0800 
  7 C      -13.2120     9.7000    -1.3100 C.2   1 SAM   0.9060 
  8 O      -12.9110     8.5020    -1.1360 O.co2 1 SAM  -0.9000 
  9 CB     -12.0010    10.9720     0.5120 C.3   1 SAM  -0.1600 
 10 HB1    -11.8725     9.9938     0.9754 H     1 SAM   0.0800 
 11 HB2    -12.8402    11.4877     0.9787 H     1 SAM   0.0800 
 12 CG     -10.7300    11.7950     0.6460 C.3   1 SAM  -0.1525 
 13 HG1    -10.9619    12.8405     0.4428 H     1 SAM   0.0800 
 14 HG2     -9.9985    11.4376    -0.0787 H     1 SAM   0.0800 
 15 SD     -10.0370    11.6630     2.2810 S.3   1 SAM   0.9775 
 16 CE     -11.1110    12.7930     3.2050 C.3   1 SAM  -0.2325 
 17 HE1    -12.0683    12.3086     3.3973 H     1 SAM   0.0800 
 18 HE2    -11.2731    13.6991     2.6212 H     1 SAM   0.0800 
 19 HE3    -10.6376    13.0510     4.1523 H     1 SAM   0.0800 
 20 C5'     -8.5670    12.6840     2.1030 C.3   1 SAM  -0.1525 
 21 H5'1    -8.3280    13.1372     3.0651 H     1 SAM   0.0800 
 22 H5'2    -8.7625    13.4675     1.3709 H     1 SAM   0.0800 
 23 C4'     -7.3840    11.8500     1.6370 C.3   1 SAM   0.2000 
 24 H4'     -7.6971    11.2712     0.7681 H     1 SAM   0.0800 
 25 O4'     -6.3550    12.7820     1.4290 O.3   1 SAM  -0.5600 
 26 C3'     -6.8610    10.8340     2.6550 C.3   1 SAM   0.2000 
 27 H3'     -7.4609    10.8308     3.5651 H     1 SAM   0.0800 
 28 O3'     -6.9180     9.5120     2.1480 O.3   1 SAM  -0.6800 
 29 H3'     -6.5541     8.9283     2.8177 H     1 SAM   0.4000 
 30 C2'     -5.4040    11.2520     2.9070 C.3   1 SAM   0.2000 
 31 H2'     -5.2612    11.7600     3.8608 H     1 SAM   0.0800 
 32 O2'     -4.4950    10.1630     3.0510 O.3   1 SAM  -0.6800 
 33 H2'     -4.5411     9.6383     2.2484 H     1 SAM   0.4000 
 34 C1'     -5.1260    12.1350     1.6950 C.3   1 SAM   0.5691 
 35 H1'     -4.7433    11.5099     0.8882 H     1 SAM   0.0800 
 36 OXT    -14.3310    10.0040    -1.7570 O.co2 1 SAM  -0.9000 
 37 N1      -1.1600    14.6060    -0.3990 N.2   1 SAM  -0.6610 
 38 C2      -1.9500    13.6040    -0.9630 C.2   1 SAM   0.6010 
 39 H2      -1.7470    13.2639    -1.9677 H     1 SAM   0.0600 
 40 N3      -2.9680    13.0550    -0.2620 N.2   1 SAM  -0.6610 
 41 C4      -3.2010    13.5290     0.9890 C.2   1 SAM   0.5000 
 42 C5      -2.4290    14.5270     1.5790 C.2   1 SAM   0.4500 
 43 C6      -1.3720    15.0710     0.8800 C.2   1 SAM   0.6110 
 44 N6      -0.6140    16.0480     1.4210 N.2   1 SAM  -0.2000 
 45 H62      0.1571    16.4373     0.8976 H     1 SAM   0.4000 
 46 H61     -0.8179    16.3898     2.3493 H     1 SAM   0.4000 
 47 N7      -2.9000    14.7660     2.8230 N.2   1 SAM  -0.6960 
 48 C8      -3.9460    13.9270     3.0300 C.3   1 SAM   0.4551 
 49 H81     -4.8493    14.5065     3.2206 H     1 SAM   0.0800 
 50 H82     -3.7383    13.2856     3.8865 H     1 SAM   0.0800 
 51 N9      -4.1190    13.1570     1.9070 N.pl3 1 SAM  -0.7882 
@<TRIPOS>BOND
  1   1   2  1   
  2   1   3  1   
  3   1   4  1   
  4   1   5  1   
  5   5   6  1   
  6   5   7  1   
  7   5   9  1   
  8   7   8  ar  
  9   7  36  ar  
 10   9  10  1   
 11   9  11  1   
 12   9  12  1   
 13  12  13  1   
 14  12  14  1   
 15  12  15  1   
 16  15  16  1   
 17  15  20  1   
 18  16  17  1   
 19  16  18  1   
 20  16  19  1   
 21  20  21  1   
 22  20  22  1   
 23  20  23  1   
 24  23  24  1   
 25  23  25  1   
 26  23  26  1   
 27  25  34  1   
 28  26  27  1   
 29  26  28  1   
 30  26  30  1   
 31  28  29  1   
 32  30  31  1   
 33  30  32  1   
 34  30  34  1   
 35  32  33  1   
 36  34  35  1   
 37  34  51  1   
 38  37  38  2   
 39  37  43  1   
 40  38  39  1   
 41  38  40  1   
 42  40  41  2   
 43  41  42  1   
 44  41  51  1   
 45  42  43  1   
 46  42  47  2   
 47  43  44  2   
 48  44  45  1   
 49  44  46  1   
 50  47  48  1   
 51  48  49  1   
 52  48  50  1   
 53  48  51  1   
@<TRIPOS>SUBSTRUCTURE
  1 SAM  25 GROUP 4 A **** 0

# MOE 2022.02 (io_trps.svl 2020.11)
