# created with PyMOL 2.5.0
@<TRIPOS>MOLECULE
5V9J
30 33 1                 
SMALL
USER_CHARGES
@<TRIPOS>ATOM
1	   N	-21.443	-14.954	-47.140	N.2	1	90P1302	0.000	
2	   C	-18.623	-17.688	-50.384	C.3	1	90P1302	0.000	
3	   O	-18.703	-16.341	-50.867	O.3	1	90P1302	0.000	
4	  C1	-19.525	-15.467	-50.208	C.2	1	90P1302	0.000	
5	  N1	-22.468	-12.784	-47.187	N.2	1	90P1302	0.000	
6	  O1	-19.183	-14.177	-52.130	O.3	1	90P1302	0.000	
7	  C2	-20.073	-15.679	-48.975	C.2	1	90P1302	0.000	
8	  N2	-22.154	-11.281	-48.869	N.pl3	1	90P1302	0.000	
9	  C3	-20.884	-14.691	-48.369	C.2	1	90P1302	0.000	
10	  N3	-23.678	-7.431	-48.125	N.3	1	90P1302	0.000	
11	  C4	-22.242	-13.983	-46.622	C.2	1	90P1302	0.000	
12	  N4	-22.945	-14.266	-45.487	N.pl3	1	90P1302	0.000	
13	  C5	-21.922	-12.505	-48.362	C.2	1	90P1302	0.000	
14	  C6	-22.942	-10.238	-48.220	C.3	1	90P1302	0.000	
15	  C7	-23.935	-9.632	-49.200	C.3	1	90P1302	0.000	
16	  C8	-24.641	-8.435	-48.568	C.3	1	90P1302	0.000	
17	  C9	-24.374	-6.235	-47.596	C.3	1	90P1302	0.000	
18	 C10	-22.803	-8.015	-47.111	C.3	1	90P1302	0.000	
19	 C11	-22.007	-9.176	-47.682	C.3	1	90P1302	0.000	
20	 C12	-21.106	-13.470	-49.053	C.2	1	90P1302	0.000	
21	 C13	-20.532	-13.283	-50.324	C.2	1	90P1302	0.000	
22	 C14	-19.768	-14.253	-50.898	C.2	1	90P1302	0.000	
23	 C15	-19.371	-13.000	-52.929	C.3	1	90P1302	0.000	
24	 C16	-23.772	-13.246	-44.837	C.3	1	90P1302	0.000	
25	 C17	-22.999	-15.625	-44.882	C.3	1	90P1302	0.000	
26	 C18	-24.373	-16.281	-44.999	C.3	1	90P1302	0.000	
27	 C19	-24.360	-17.695	-44.419	C.3	1	90P1302	0.000	
28	 C20	-23.870	-17.702	-42.977	C.3	1	90P1302	0.000	
29	 C21	-22.509	-17.024	-42.867	C.3	1	90P1302	0.000	
30	 C22	-22.566	-15.604	-43.426	C.3	1	90P1302	0.000	
@<TRIPOS>BOND
1 1 9 ar
2 1 11 ar
3 2 3 1
4 3 4 1
5 4 7 ar
6 4 22 ar
7 5 11 ar
8 5 13 ar
9 6 22 1
10 6 23 1
11 7 9 ar
12 8 13 1
13 8 14 1
14 9 20 ar
15 10 16 1
16 10 17 1
17 10 18 1
18 11 12 1
19 12 24 1
20 12 25 1
21 13 20 ar
22 14 15 1
23 14 19 1
24 15 16 1
25 18 19 1
26 20 21 ar
27 21 22 ar
28 25 26 1
29 25 30 1
30 26 27 1
31 27 28 1
32 28 29 1
33 29 30 1
@<TRIPOS>SUBSTRUCTURE
1	90P1302	1	GROUP	1 B	90P
