@<TRIPOS>MOLECULE
90P.****
70 73 1 0 0 
SMALL
USER_CHARGES


@<TRIPOS>ATOM
  1 C4      -1.8800   -18.4090    -4.2060 C.ar  1 Q90P0   0.7710 
  2 C5      -1.3920   -20.2400    -2.8730 C.ar  1 Q90P0   0.4100 
  3 C6      -3.1630   -21.1980    -1.4550 C.3   1 Q90P0   0.2891 
  4 N1      -2.2470   -19.3290    -3.3180 N.ar  1 Q90P0  -0.6200 
  5 C7      -3.2040   -21.8610    -0.0750 C.3   1 Q90P0  -0.1600 
  6 C8      -4.6530   -21.9230     0.4140 C.3   1 Q90P0   0.3430 
  7 N2      -1.7860   -21.1880    -1.9530 N.pl3 1 Q90P0  -0.8691 
  8 H6      -1.1500   -21.8490    -1.6350 H     1 Q90P0   0.4000 
  9 C9      -6.8270   -22.8880    -0.0380 C.3   1 Q90P0   0.3430 
 10 C10     -5.4760   -22.0470    -1.8630 C.3   1 Q90P0   0.3430 
 11 C11     -4.0520   -21.9890    -2.4180 C.3   1 Q90P0  -0.1600 
 12 C12     -0.0620   -20.2070    -3.3580 C.ar  1 Q90P0   0.0000 
 13 N3      -5.4610   -22.6900    -0.5420 N.4   1 Q90P0  -0.9590 
 14 H3      -5.0323   -23.5985    -0.6467 H     1 Q90P0   0.4500 
 15 C13      0.9030   -21.1280    -2.9300 C.ar  1 Q90P0  -0.1500 
 16 C14      2.1700   -21.0620    -3.4350 C.ar  1 Q90P0   0.0825 
 17 C15      2.6920   -22.9300    -2.0570 C.3   1 Q90P0   0.0400 
 18 N4      -2.8210   -17.4860    -4.6310 N.pl3 1 Q90P0  -0.8382 
 19 C16     -4.1860   -17.5360    -4.1030 C.3   1 Q90P0   0.1291 
 20 C17     -2.4490   -16.4600    -5.6060 C.3   1 Q90P0   0.2891 
 21 C22     -3.3230   -16.6040    -6.8560 C.3   1 Q90P0  -0.1600 
 22 C21     -2.9350   -15.5320    -7.8750 C.3   1 Q90P0  -0.1600 
 23 C20     -3.1460   -14.1450    -7.2630 C.3   1 Q90P0  -0.1600 
 24 C19     -2.2720   -14.0010    -6.0150 C.3   1 Q90P0  -0.1600 
 25 C18     -2.6600   -15.0730    -4.9950 C.3   1 Q90P0  -0.1600 
 26 N       -0.6570   -18.3360    -4.6940 N.ar  1 Q90P0  -0.1790 
 27 H       -0.4268   -17.6185    -5.3665 H     1 Q90P0   0.4570 
 28 C3       0.2840   -19.2100    -4.3020 C.ar  1 Q90P0   0.3610 
 29 C2       1.5900   -19.1590    -4.8020 C.ar  1 Q90P0  -0.1500 
 30 O1       3.1060   -21.9570    -3.0170 O.3   1 Q90P0  -0.3625 
 31 C1       2.5190   -20.0780    -4.3690 C.ar  1 Q90P0   0.0825 
 32 O        3.7890   -20.0310    -4.8530 O.3   1 Q90P0  -0.3625 
 33 C        4.0840   -19.0050    -5.8020 C.3   1 Q90P0   0.0400 
 34 H1      -3.5300   -20.1750    -1.3770 H     1 Q90P0   0.0800 
 35 H2      -2.8010   -22.8730    -0.1450 H     1 Q90P0   0.0800 
 36 H3      -2.6070   -21.2790     0.6270 H     1 Q90P0   0.0800 
 37 H4      -4.6870   -22.4080     1.3890 H     1 Q90P0   0.0800 
 38 H5      -5.0510   -20.9120     0.4960 H     1 Q90P0   0.0800 
 39 H7      -7.2630   -21.9220     0.2180 H     1 Q90P0   0.0800 
 40 H8      -7.4320   -23.3680    -0.8070 H     1 Q90P0   0.0800 
 41 H10     -5.8710   -21.0350    -1.7680 H     1 Q90P0   0.0800 
 42 H11     -6.1080   -22.6220    -2.5390 H     1 Q90P0   0.0800 
 43 H12     -4.0610   -21.4980    -3.3920 H     1 Q90P0   0.0800 
 44 H13     -3.6620   -23.0020    -2.5260 H     1 Q90P0   0.0800 
 45 H15      0.6440   -21.8900    -2.2090 H     1 Q90P0   0.1500 
 46 H16      2.3470   -22.4260    -1.1540 H     1 Q90P0   0.0800 
 47 H17      1.8800   -23.5270    -2.4710 H     1 Q90P0   0.0800 
 48 H18      3.5320   -23.5790    -1.8110 H     1 Q90P0   0.0800 
 49 H19     -4.2530   -16.9190    -3.2070 H     1 Q90P0   0.0800 
 50 H20     -4.8800   -17.1610    -4.8560 H     1 Q90P0   0.0800 
 51 H21     -4.4430   -18.5660    -3.8550 H     1 Q90P0   0.0800 
 52 H22     -1.4020   -16.5800    -5.8810 H     1 Q90P0   0.0800 
 53 H23     -3.1720   -17.5920    -7.2910 H     1 Q90P0   0.0800 
 54 H24     -4.3700   -16.4840    -6.5820 H     1 Q90P0   0.0800 
 55 H25     -1.8880   -15.6520    -8.1490 H     1 Q90P0   0.0800 
 56 H26     -3.5570   -15.6350    -8.7650 H     1 Q90P0   0.0800 
 57 H27     -2.8700   -13.3810    -7.9910 H     1 Q90P0   0.0800 
 58 H28     -4.1940   -14.0250    -6.9890 H     1 Q90P0   0.0800 
 59 H29     -1.2250   -14.1220    -6.2890 H     1 Q90P0   0.0800 
 60 H30     -2.4240   -13.0130    -5.5790 H     1 Q90P0   0.0800 
 61 H31     -3.7080   -14.9530    -4.7210 H     1 Q90P0   0.0800 
 62 H32     -2.0390   -14.9700    -4.1050 H     1 Q90P0   0.0800 
 63 H33      1.8680   -18.4030    -5.5230 H     1 Q90P0   0.1500 
 64 H34      3.4410   -19.1230    -6.6750 H     1 Q90P0   0.0800 
 65 H35      3.9060   -18.0290    -5.3500 H     1 Q90P0   0.0800 
 66 H36      5.1270   -19.0800    -6.1060 H     1 Q90P0   0.0800 
 67 C23     -6.7870   -23.7750     1.2080 C.3   1 Q90P0  -0.2400 
 68 H9      -6.1810   -23.2950     1.9760 H     1 Q90P0   0.0800 
 69 H14     -7.8000   -23.9210     1.5820 H     1 Q90P0   0.0800 
 70 H37     -6.3510   -24.7400     0.9520 H     1 Q90P0   0.0800 
@<TRIPOS>BOND
  1   1   4  ar  
  2   1  18  1   
  3   1  26  ar  
  4   2   4  ar  
  5   2   7  1   
  6   2  12  ar  
  7   3   5  1   
  8   3   7  1   
  9   3  11  1   
 10   3  34  1   
 11   5   6  1   
 12   5  35  1   
 13   5  36  1   
 14   6  13  1   
 15   6  37  1   
 16   6  38  1   
 17   7   8  1   
 18   9  13  1   
 19   9  39  1   
 20   9  40  1   
 21   9  67  1   
 22  10  11  1   
 23  10  13  1   
 24  10  41  1   
 25  10  42  1   
 26  11  43  1   
 27  11  44  1   
 28  12  15  ar  
 29  12  28  ar  
 30  13  14  1   
 31  15  16  ar  
 32  15  45  1   
 33  16  30  1   
 34  16  31  ar  
 35  17  30  1   
 36  17  46  1   
 37  17  47  1   
 38  17  48  1   
 39  18  19  1   
 40  18  20  1   
 41  19  49  1   
 42  19  50  1   
 43  19  51  1   
 44  20  21  1   
 45  20  25  1   
 46  20  52  1   
 47  21  22  1   
 48  21  53  1   
 49  21  54  1   
 50  22  23  1   
 51  22  55  1   
 52  22  56  1   
 53  23  24  1   
 54  23  57  1   
 55  23  58  1   
 56  24  25  1   
 57  24  59  1   
 58  24  60  1   
 59  25  61  1   
 60  25  62  1   
 61  26  27  1   
 62  26  28  ar  
 63  28  29  ar  
 64  29  31  ar  
 65  29  63  1   
 66  31  32  1   
 67  32  33  1   
 68  33  64  1   
 69  33  65  1   
 70  33  66  1   
 71  67  68  1   
 72  67  69  1   
 73  67  70  1   
@<TRIPOS>SUBSTRUCTURE
  1 Q90P0   4 GROUP 4 **** **** 0

# MOE 2022.02 (io_trps.svl 2020.11)
