# created with PyMOL 2.5.2
@<TRIPOS>MOLECULE
90P
68 71 1                 
SMALL
USER_CHARGES
@<TRIPOS>ATOM
1	  C4	-1.880	-18.409	-4.206	C.2	1	90P0	0.000	
2	  C5	-1.392	-20.240	-2.873	C.2	1	90P0	0.000	
3	  C6	-3.163	-21.198	-1.455	C.3	1	90P0	0.000	
4	  N1	-2.247	-19.329	-3.318	N.2	1	90P0	0.000	
5	  C7	-3.204	-21.861	-0.075	C.3	1	90P0	0.000	
6	  C8	-4.653	-21.923	0.414	C.3	1	90P0	0.000	
7	  N2	-1.786	-21.188	-1.953	N.pl3	1	90P0	0.000	
8	  C9	-6.827	-22.888	-0.038	C.3	1	90P0	0.000	
9	 C10	-5.476	-22.047	-1.863	C.3	1	90P0	0.000	
10	 C11	-4.052	-21.989	-2.418	C.3	1	90P0	0.000	
11	 C12	-0.062	-20.207	-3.358	C.2	1	90P0	0.000	
12	  N3	-5.461	-22.690	-0.542	N.3	1	90P0	0.000	
13	 C13	0.903	-21.128	-2.930	C.2	1	90P0	0.000	
14	 C14	2.170	-21.062	-3.435	C.2	1	90P0	0.000	
15	 C15	2.692	-22.930	-2.057	C.3	1	90P0	0.000	
16	  N4	-2.821	-17.486	-4.631	N.pl3	1	90P0	0.000	
17	 C16	-4.186	-17.536	-4.103	C.3	1	90P0	0.000	
18	 C17	-2.449	-16.460	-5.606	C.3	1	90P0	0.000	
19	 C22	-3.323	-16.604	-6.856	C.3	1	90P0	0.000	
20	 C21	-2.935	-15.532	-7.875	C.3	1	90P0	0.000	
21	 C20	-3.146	-14.145	-7.263	C.3	1	90P0	0.000	
22	 C19	-2.272	-14.001	-6.015	C.3	1	90P0	0.000	
23	 C18	-2.660	-15.073	-4.995	C.3	1	90P0	0.000	
24	   N	-0.657	-18.336	-4.694	N.2	1	90P0	0.000	
25	  C3	0.284	-19.210	-4.302	C.2	1	90P0	0.000	
26	  C2	1.590	-19.159	-4.802	C.2	1	90P0	0.000	
27	  O1	3.106	-21.957	-3.017	O.3	1	90P0	0.000	
28	  C1	2.519	-20.078	-4.369	C.2	1	90P0	0.000	
29	   O	3.789	-20.031	-4.853	O.3	1	90P0	0.000	
30	   C	4.084	-19.005	-5.802	C.3	1	90P0	0.000	
31	  H1	-3.530	-20.175	-1.377	 H	1	90P0	0.000	
32	  H2	-2.801	-22.873	-0.145	 H	1	90P0	0.000	
33	  H3	-2.607	-21.279	0.627	 H	1	90P0	0.000	
34	  H4	-4.687	-22.408	1.389	 H	1	90P0	0.000	
35	  H5	-5.051	-20.912	0.496	 H	1	90P0	0.000	
36	  H6	-1.150	-21.849	-1.635	 H	1	90P0	0.000	
37	  H7	-7.263	-21.922	0.218	 H	1	90P0	0.000	
38	  H8	-7.432	-23.368	-0.807	 H	1	90P0	0.000	
39	 H10	-5.871	-21.035	-1.768	 H	1	90P0	0.000	
40	 H11	-6.108	-22.622	-2.539	 H	1	90P0	0.000	
41	 H12	-4.061	-21.498	-3.392	 H	1	90P0	0.000	
42	 H13	-3.662	-23.002	-2.526	 H	1	90P0	0.000	
43	 H15	0.644	-21.890	-2.209	 H	1	90P0	0.000	
44	 H16	2.347	-22.426	-1.154	 H	1	90P0	0.000	
45	 H17	1.880	-23.527	-2.471	 H	1	90P0	0.000	
46	 H18	3.532	-23.579	-1.811	 H	1	90P0	0.000	
47	 H19	-4.253	-16.919	-3.207	 H	1	90P0	0.000	
48	 H20	-4.880	-17.161	-4.856	 H	1	90P0	0.000	
49	 H21	-4.443	-18.566	-3.855	 H	1	90P0	0.000	
50	 H22	-1.402	-16.580	-5.881	 H	1	90P0	0.000	
51	 H23	-3.172	-17.592	-7.291	 H	1	90P0	0.000	
52	 H24	-4.370	-16.484	-6.582	 H	1	90P0	0.000	
53	 H25	-1.888	-15.652	-8.149	 H	1	90P0	0.000	
54	 H26	-3.557	-15.635	-8.765	 H	1	90P0	0.000	
55	 H27	-2.870	-13.381	-7.991	 H	1	90P0	0.000	
56	 H28	-4.194	-14.025	-6.989	 H	1	90P0	0.000	
57	 H29	-1.225	-14.122	-6.289	 H	1	90P0	0.000	
58	 H30	-2.424	-13.013	-5.579	 H	1	90P0	0.000	
59	 H31	-3.708	-14.953	-4.721	 H	1	90P0	0.000	
60	 H32	-2.039	-14.970	-4.105	 H	1	90P0	0.000	
61	 H33	1.868	-18.403	-5.523	 H	1	90P0	0.000	
62	 H34	3.441	-19.123	-6.675	 H	1	90P0	0.000	
63	 H35	3.906	-18.029	-5.350	 H	1	90P0	0.000	
64	 H36	5.127	-19.080	-6.106	 H	1	90P0	0.000	
65	 C23	-6.787	-23.775	1.208	C.3	1	90P0	0.000	
66	  H9	-6.181	-23.295	1.976	 H	1	90P0	0.000	
67	 H14	-7.800	-23.921	1.582	 H	1	90P0	0.000	
68	 H37	-6.351	-24.740	0.952	 H	1	90P0	0.000	
@<TRIPOS>BOND
1 20 21 1
2 19 20 1
3 21 22 1
4 18 19 1
5 29 30 1
6 16 18 1
7 18 23 1
8 22 23 1
9 28 29 1
10 26 28 2
11 25 26 1
12 24 25 2
13 1 24 1
14 1 16 1
15 16 17 1
16 14 28 1
17 11 25 1
18 1 4 2
19 14 27 1
20 13 14 2
21 2 4 1
22 11 13 1
23 2 11 2
24 15 27 1
25 2 7 1
26 9 10 1
27 3 10 1
28 3 7 1
29 9 12 1
30 3 5 1
31 8 12 1
32 6 12 1
33 5 6 1
34 3 31 1
35 5 32 1
36 5 33 1
37 6 34 1
38 6 35 1
39 7 36 1
40 8 37 1
41 8 38 1
42 9 39 1
43 9 40 1
44 10 41 1
45 10 42 1
46 13 43 1
47 15 44 1
48 15 45 1
49 15 46 1
50 17 47 1
51 17 48 1
52 17 49 1
53 18 50 1
54 19 51 1
55 19 52 1
56 20 53 1
57 20 54 1
58 21 55 1
59 21 56 1
60 22 57 1
61 22 58 1
62 23 59 1
63 23 60 1
64 26 61 1
65 30 62 1
66 30 63 1
67 30 64 1
68 8 65 1
69 65 66 1
70 65 67 1
71 65 68 1
@<TRIPOS>SUBSTRUCTURE
1	90P0	1	GROUP	1 ****	90P
