# created with PyMOL 2.5.2
@<TRIPOS>MOLECULE
90P
31 34 1                 
SMALL
USER_CHARGES
@<TRIPOS>ATOM
1	  C4	-22.404	-13.988	-46.713	C.2	1	90P0	0.000	
2	  C5	-22.009	-12.542	-48.479	C.2	1	90P0	0.000	
3	  C6	-23.038	-10.304	-48.450	C.3	1	90P0	0.000	
4	  N1	-22.578	-12.815	-47.313	N.2	1	90P0	0.000	
5	  C7	-23.595	-9.356	-49.516	C.3	1	90P0	0.000	
6	  C8	-24.422	-8.262	-48.837	C.3	1	90P0	0.000	
7	  N2	-22.198	-11.320	-49.090	N.pl3	1	90P0	0.000	
8	  C9	-24.297	-6.377	-47.322	C.3	1	90P0	0.000	
9	 C10	-23.066	-8.403	-46.832	C.3	1	90P0	0.000	
10	 C11	-22.200	-9.500	-47.452	C.3	1	90P0	0.000	
11	 C12	-21.210	-13.541	-49.087	C.2	1	90P0	0.000	
12	  N3	-23.575	-7.522	-47.892	N.3	1	90P0	0.000	
13	 C13	-20.583	-13.334	-50.322	C.2	1	90P0	0.000	
14	 C14	-19.813	-14.325	-50.863	C.2	1	90P0	0.000	
15	 C15	-19.415	-12.858	-52.692	C.3	1	90P0	0.000	
16	  N4	-23.026	-14.210	-45.497	N.pl3	1	90P0	0.000	
17	 C16	-23.856	-13.163	-44.897	C.3	1	90P0	0.000	
18	 C17	-22.855	-15.492	-44.810	C.3	1	90P0	0.000	
19	 C22	-22.217	-15.255	-43.439	C.3	1	90P0	0.000	
20	 C21	-22.038	-16.594	-42.722	C.3	1	90P0	0.000	
21	 C20	-23.402	-17.263	-42.540	C.3	1	90P0	0.000	
22	 C19	-24.039	-17.500	-43.911	C.3	1	90P0	0.000	
23	 C18	-24.219	-16.161	-44.629	C.3	1	90P0	0.000	
24	   N	-21.667	-14.951	-47.231	N.2	1	90P0	0.000	
25	  C3	-21.052	-14.776	-48.412	C.2	1	90P0	0.000	
26	  C2	-20.262	-15.779	-48.988	C.2	1	90P0	0.000	
27	  O1	-19.205	-14.123	-52.063	O.3	1	90P0	0.000	
28	  C1	-19.652	-15.549	-50.201	C.2	1	90P0	0.000	
29	   O	-18.886	-16.521	-50.762	O.3	1	90P0	0.000	
30	   C	-18.760	-17.747	-50.040	C.3	1	90P0	0.000	
31	 C23	-24.593	-5.360	-48.427	C.3	1	90P0	0.000	
@<TRIPOS>BOND
1 20 21 1
2 19 20 1
3 21 22 1
4 18 19 1
5 29 30 1
6 16 18 1
7 18 23 1
8 22 23 1
9 28 29 1
10 26 28 2
11 25 26 1
12 24 25 2
13 1 24 1
14 1 16 1
15 16 17 1
16 14 28 1
17 11 25 1
18 1 4 2
19 14 27 1
20 13 14 2
21 2 4 1
22 11 13 1
23 2 11 2
24 15 27 1
25 2 7 1
26 9 10 1
27 3 10 1
28 3 7 1
29 9 12 1
30 3 5 1
31 8 12 1
32 6 12 1
33 5 6 1
34 8 31 1
@<TRIPOS>SUBSTRUCTURE
1	90P0	1	GROUP	1 ****	90P
