# created with PyMOL 2.5.0
@<TRIPOS>MOLECULE
5V9J
30 33 1                 
SMALL
USER_CHARGES
@<TRIPOS>ATOM
1	   N	-0.648	-18.429	-4.892	N.2	1	90P1302	0.000	
2	   C	4.294	-19.323	-5.810	C.3	1	90P1302	0.000	
3	   O	3.788	-20.362	-4.972	O.3	1	90P1302	0.000	
4	  C1	2.510	-20.240	-4.491	C.2	1	90P1302	0.000	
5	  N1	-2.279	-19.313	-3.369	N.2	1	90P1302	0.000	
6	  O1	3.196	-21.979	-3.059	O.3	1	90P1302	0.000	
7	  C2	1.571	-19.359	-4.958	C.2	1	90P1302	0.000	
8	  N2	-1.894	-21.067	-1.981	N.pl3	1	90P1302	0.000	
9	  C3	0.270	-19.329	-4.400	C.2	1	90P1302	0.000	
10	  N3	-5.366	-22.889	-0.496	N.3	1	90P1302	0.000	
11	  C4	-1.890	-18.458	-4.325	C.2	1	90P1302	0.000	
12	  N4	-2.802	-17.519	-4.709	N.pl3	1	90P1302	0.000	
13	  C5	-1.416	-20.193	-2.886	C.2	1	90P1302	0.000	
14	  C6	-3.264	-21.116	-1.455	C.3	1	90P1302	0.000	
15	  C7	-3.249	-21.726	-0.056	C.3	1	90P1302	0.000	
16	  C8	-4.665	-22.004	0.427	C.3	1	90P1302	0.000	
17	  C9	-6.687	-23.280	0.048	C.3	1	90P1302	0.000	
18	 C10	-5.504	-22.217	-1.785	C.3	1	90P1302	0.000	
19	 C11	-4.132	-21.929	-2.406	C.3	1	90P1302	0.000	
20	 C12	-0.053	-20.239	-3.361	C.2	1	90P1302	0.000	
21	 C13	0.939	-21.123	-2.894	C.2	1	90P1302	0.000	
22	 C14	2.185	-21.137	-3.439	C.2	1	90P1302	0.000	
23	 C15	2.911	-22.987	-2.083	C.3	1	90P1302	0.000	
24	 C16	-4.177	-17.560	-4.209	C.3	1	90P1302	0.000	
25	 C17	-2.438	-16.301	-5.492	C.3	1	90P1302	0.000	
26	 C18	-2.289	-15.067	-4.618	C.3	1	90P1302	0.000	
27	 C19	-1.772	-13.887	-5.438	C.3	1	90P1302	0.000	
28	 C20	-2.667	-13.599	-6.633	C.3	1	90P1302	0.000	
29	 C21	-2.873	-14.847	-7.471	C.3	1	90P1302	0.000	
30	 C22	-3.412	-15.990	-6.615	C.3	1	90P1302	0.000	
@<TRIPOS>BOND
1 1 9 ar
2 1 11 ar
3 2 3 1
4 3 4 1
5 4 7 ar
6 4 22 ar
7 5 11 ar
8 5 13 ar
9 6 22 1
10 6 23 1
11 7 9 ar
12 8 13 1
13 8 14 1
14 9 20 ar
15 10 16 1
16 10 17 1
17 10 18 1
18 11 12 1
19 12 24 1
20 12 25 1
21 13 20 ar
22 14 15 1
23 14 19 1
24 15 16 1
25 18 19 1
26 20 21 ar
27 21 22 ar
28 25 26 1
29 25 30 1
30 26 27 1
31 27 28 1
32 28 29 1
33 29 30 1
@<TRIPOS>SUBSTRUCTURE
1	90P1302	1	GROUP	1 A	90P
