@<TRIPOS>MOLECULE
90P.****
70 73 1 0 0 
SMALL
USER_CHARGES


@<TRIPOS>ATOM
  1 C4     -22.4040   -13.9880   -46.7130 C.ar  1 Q90P0   0.7710 
  2 C5     -22.0090   -12.5420   -48.4790 C.ar  1 Q90P0   0.4100 
  3 C6     -23.0380   -10.3040   -48.4500 C.3   1 Q90P0   0.2891 
  4 H6     -23.8599   -10.7936   -47.9276 H     1 Q90P0   0.0800 
  5 N1     -22.5780   -12.8150   -47.3130 N.ar  1 Q90P0  -0.6200 
  6 C7     -23.5950    -9.3560   -49.5160 C.3   1 Q90P0  -0.1600 
  7 H71    -24.2271    -9.9150   -50.2060 H     1 Q90P0   0.0800 
  8 H72    -22.7707    -8.9013   -50.0655 H     1 Q90P0   0.0800 
  9 C8     -24.4220    -8.2620   -48.8370 C.3   1 Q90P0   0.3430 
 10 H81    -25.2542    -8.7166   -48.2996 H     1 Q90P0   0.0800 
 11 H82    -24.8079    -7.5771   -49.5920 H     1 Q90P0   0.0800 
 12 N2     -22.1980   -11.3200   -49.0900 N.pl3 1 Q90P0  -0.8691 
 13 H2     -21.7577   -11.1255   -49.9779 H     1 Q90P0   0.4000 
 14 C9     -24.2970    -6.3770   -47.3220 C.3   1 Q90P0   0.3430 
 15 H91    -23.6849    -5.9085   -46.5513 H     1 Q90P0   0.0800 
 16 H92    -25.2340    -6.7200   -46.8832 H     1 Q90P0   0.0800 
 17 C10    -23.0660    -8.4030   -46.8320 C.3   1 Q90P0   0.3430 
 18 H101   -22.4677    -7.8203   -46.1316 H     1 Q90P0   0.0800 
 19 H102   -23.9042    -8.8572   -46.3035 H     1 Q90P0   0.0800 
 20 C11    -22.2000    -9.5000   -47.4520 C.3   1 Q90P0  -0.1600 
 21 H111   -21.3539    -9.0472   -47.9688 H     1 Q90P0   0.0800 
 22 H112   -21.8343   -10.1622   -46.6672 H     1 Q90P0   0.0800 
 23 C12    -21.2100   -13.5410   -49.0870 C.ar  1 Q90P0  -0.0000 
 24 N3     -23.5750    -7.5220   -47.8920 N.4   1 Q90P0  -0.9590 
 25 H3     -22.7811    -7.1659   -48.4049 H     1 Q90P0   0.4500 
 26 C13    -20.5830   -13.3340   -50.3220 C.ar  1 Q90P0  -0.1500 
 27 H13    -20.7072   -12.3966   -50.8439 H     1 Q90P0   0.1500 
 28 C14    -19.8130   -14.3250   -50.8630 C.ar  1 Q90P0   0.0825 
 29 C15    -19.4150   -12.8580   -52.6920 C.3   1 Q90P0   0.0400 
 30 H151   -18.8758   -12.8291   -53.6388 H     1 Q90P0   0.0800 
 31 H152   -19.0495   -12.0635   -52.0413 H     1 Q90P0   0.0800 
 32 H153   -20.4799   -12.7160   -52.8759 H     1 Q90P0   0.0800 
 33 N4     -23.0260   -14.2100   -45.4970 N.pl3 1 Q90P0  -0.8382 
 34 C16    -23.8560   -13.1630   -44.8970 C.3   1 Q90P0   0.1291 
 35 H161   -23.8644   -12.2885   -45.5477 H     1 Q90P0   0.0800 
 36 H162   -23.4476   -12.8883   -43.9244 H     1 Q90P0   0.0800 
 37 H163   -24.8737   -13.5329   -44.7724 H     1 Q90P0   0.0800 
 38 C17    -22.8550   -15.4920   -44.8100 C.3   1 Q90P0   0.2891 
 39 H17    -22.2098   -16.1389   -45.4044 H     1 Q90P0   0.0800 
 40 C22    -22.2170   -15.2550   -43.4390 C.3   1 Q90P0  -0.1600 
 41 H221   -22.8624   -14.6080   -42.8448 H     1 Q90P0   0.0800 
 42 H222   -21.2449   -14.7790   -43.5679 H     1 Q90P0   0.0800 
 43 C21    -22.0380   -16.5940   -42.7220 C.3   1 Q90P0  -0.1600 
 44 H211   -21.5832   -16.4252   -41.7459 H     1 Q90P0   0.0800 
 45 H212   -21.3928   -17.2408   -43.3165 H     1 Q90P0   0.0800 
 46 C20    -23.4020   -17.2630   -42.5400 C.3   1 Q90P0  -0.1600 
 47 H201   -24.0478   -16.6164   -41.9459 H     1 Q90P0   0.0800 
 48 H202   -23.2737   -18.2171   -42.0288 H     1 Q90P0   0.0800 
 49 C19    -24.0390   -17.5000   -43.9110 C.3   1 Q90P0  -0.1600 
 50 H191   -25.0108   -17.9767   -43.7825 H     1 Q90P0   0.0800 
 51 H192   -23.3929   -18.1465   -44.5048 H     1 Q90P0   0.0800 
 52 C18    -24.2190   -16.1610   -44.6290 C.3   1 Q90P0  -0.1600 
 53 H181   -24.6730   -16.3304   -45.6054 H     1 Q90P0   0.0800 
 54 H182   -24.8650   -15.5143   -44.0352 H     1 Q90P0   0.0800 
 55 N      -21.6670   -14.9510   -47.2310 N.ar  1 Q90P0  -0.1790 
 56 H      -21.5644   -15.8257   -46.7365 H     1 Q90P0   0.4570 
 57 C3     -21.0520   -14.7760   -48.4120 C.ar  1 Q90P0   0.3610 
 58 C2     -20.2620   -15.7790   -48.9880 C.ar  1 Q90P0  -0.1500 
 59 H2     -20.1322   -16.7256   -48.4846 H     1 Q90P0   0.1500 
 60 O1     -19.2050   -14.1230   -52.0630 O.3   1 Q90P0  -0.3625 
 61 C1     -19.6520   -15.5490   -50.2010 C.ar  1 Q90P0   0.0825 
 62 O      -18.8860   -16.5210   -50.7620 O.3   1 Q90P0  -0.3625 
 63 C      -18.7600   -17.7470   -50.0400 C.3   1 Q90P0   0.0400 
 64 H1     -18.1237   -18.4337   -50.5983 H     1 Q90P0   0.0800 
 65 H2     -19.7457   -18.1927   -49.9059 H     1 Q90P0   0.0800 
 66 H3     -18.3145   -17.5503   -49.0648 H     1 Q90P0   0.0800 
 67 C23    -24.5930    -5.3600   -48.4270 C.3   1 Q90P0  -0.2400 
 68 H231   -23.6559    -5.0171   -48.8657 H     1 Q90P0   0.0800 
 69 H232   -25.1289    -4.5101   -48.0045 H     1 Q90P0   0.0800 
 70 H233   -25.2049    -5.8286   -49.1977 H     1 Q90P0   0.0800 
@<TRIPOS>BOND
  1   1   5  ar  
  2   1  33  1   
  3   1  55  ar  
  4   2   5  ar  
  5   2  12  1   
  6   2  23  ar  
  7   3   4  1   
  8   3   6  1   
  9   3  12  1   
 10   3  20  1   
 11   6   7  1   
 12   6   8  1   
 13   6   9  1   
 14   9  10  1   
 15   9  11  1   
 16   9  24  1   
 17  12  13  1   
 18  14  15  1   
 19  14  16  1   
 20  14  24  1   
 21  14  67  1   
 22  17  18  1   
 23  17  19  1   
 24  17  20  1   
 25  17  24  1   
 26  20  21  1   
 27  20  22  1   
 28  23  26  ar  
 29  23  57  ar  
 30  24  25  1   
 31  26  27  1   
 32  26  28  ar  
 33  28  60  1   
 34  28  61  ar  
 35  29  30  1   
 36  29  31  1   
 37  29  32  1   
 38  29  60  1   
 39  33  34  1   
 40  33  38  1   
 41  34  35  1   
 42  34  36  1   
 43  34  37  1   
 44  38  39  1   
 45  38  40  1   
 46  38  52  1   
 47  40  41  1   
 48  40  42  1   
 49  40  43  1   
 50  43  44  1   
 51  43  45  1   
 52  43  46  1   
 53  46  47  1   
 54  46  48  1   
 55  46  49  1   
 56  49  50  1   
 57  49  51  1   
 58  49  52  1   
 59  52  53  1   
 60  52  54  1   
 61  55  56  1   
 62  55  57  ar  
 63  57  58  ar  
 64  58  59  1   
 65  58  61  ar  
 66  61  62  1   
 67  62  63  1   
 68  63  64  1   
 69  63  65  1   
 70  63  66  1   
 71  67  68  1   
 72  67  69  1   
 73  67  70  1   
@<TRIPOS>SUBSTRUCTURE
  1 Q90P0   5 GROUP 4 **** **** 0

# MOE 2022.02 (io_trps.svl 2020.11)
