@<TRIPOS>MOLECULE
5V9J.B
51 53 1 0 0 
SMALL
USER_CHARGES


@<TRIPOS>ATOM
  1 N       -7.9840   -12.8310   -58.2800 N.4   1 SAM  -0.8530 
  2 H1      -7.0410   -13.1756   -58.3895 H     1 SAM   0.4500 
  3 H2      -8.1489   -12.0854   -58.9411 H     1 SAM   0.4500 
  4 H3      -8.6385   -13.5815   -58.4489 H     1 SAM   0.4500 
  5 CA      -8.1620   -12.3280   -56.9280 C.3   1 SAM   0.3170 
  6 HA      -9.1822   -11.9593   -56.8220 H     1 SAM   0.0800 
  7 C       -7.2270   -11.1690   -56.6610 C.2   1 SAM   0.9060 
  8 O       -6.5210   -10.7510   -57.6180 O.co2 1 SAM  -0.9000 
  9 CB      -7.9550   -13.4550   -55.9140 C.3   1 SAM  -0.1600 
 10 HB1     -7.6474   -13.0262   -54.9603 H     1 SAM   0.0800 
 11 HB2     -7.1771   -14.1258   -56.2785 H     1 SAM   0.0800 
 12 CG      -9.2510   -14.2490   -55.7140 C.3   1 SAM  -0.1525 
 13 HG1     -9.0074   -15.1658   -55.1771 H     1 SAM   0.0800 
 14 HG2     -9.6505   -14.4988   -56.6969 H     1 SAM   0.0800 
 15 SD     -10.4410   -13.4460   -54.8580 S.3   1 SAM   0.9775 
 16 CE     -10.8030   -14.3890   -53.5380 C.3   1 SAM  -0.2325 
 17 HE1     -9.9248   -14.4698   -52.8974 H     1 SAM   0.0800 
 18 HE2    -11.1016   -15.3826   -53.8722 H     1 SAM   0.0800 
 19 HE3    -11.6200   -13.9330   -52.9788 H     1 SAM   0.0800 
 20 C5'    -11.9040   -13.4570   -55.6890 C.3   1 SAM  -0.1525 
 21 H5'1   -12.6781   -13.1422   -54.9891 H     1 SAM   0.0800 
 22 H5'2   -12.0928   -14.4839   -56.0018 H     1 SAM   0.0800 
 23 C4'    -12.0240   -12.5720   -56.9310 C.3   1 SAM   0.2000 
 24 H4'    -11.7308   -11.5758   -56.5998 H     1 SAM   0.0800 
 25 O4'    -11.1950   -13.0450   -58.0020 O.3   1 SAM  -0.5600 
 26 C3'    -13.4400   -12.5950   -57.4990 C.3   1 SAM   0.2000 
 27 H3'    -13.9064   -13.5720   -57.3724 H     1 SAM   0.0800 
 28 O3'    -14.4500   -11.8070   -56.8100 O.3   1 SAM  -0.6800 
 29 H3'    -15.2817   -11.9326   -57.2727 H     1 SAM   0.4000 
 30 C2'    -13.2030   -12.2000   -58.9330 C.3   1 SAM   0.2000 
 31 H2'    -14.0416   -12.4312   -59.5898 H     1 SAM   0.0800 
 32 O2'    -12.9790   -10.7880   -59.0540 O.3   1 SAM  -0.6800 
 33 H2'    -13.7835   -10.3419   -58.7793 H     1 SAM   0.4000 
 34 C1'    -11.9190   -12.9390   -59.2420 C.3   1 SAM   0.5691 
 35 H1'    -11.3658   -12.4049   -60.0145 H     1 SAM   0.0800 
 36 OXT     -7.2150   -10.6700   -55.4930 O.co2 1 SAM  -0.9000 
 37 N1     -14.0460   -15.9210   -62.9910 N.2   1 SAM  -0.6610 
 38 C2     -14.0120   -14.5690   -62.8830 C.2   1 SAM   0.6010 
 39 H2     -14.4794   -13.9793   -63.6577 H     1 SAM   0.0600 
 40 N3     -13.4210   -13.9250   -61.8520 N.2   1 SAM  -0.6610 
 41 C4     -12.8240   -14.6400   -60.8510 C.2   1 SAM   0.5000 
 42 C5     -12.8300   -16.1090   -60.8970 C.2   1 SAM   0.4500 
 43 C6     -13.4970   -16.7420   -62.0490 C.2   1 SAM   0.6110 
 44 N6     -13.5290   -18.0860   -62.1480 N.2   1 SAM  -0.2000 
 45 H62    -13.9850   -18.5236   -62.9358 H     1 SAM   0.4000 
 46 H61    -13.0969   -18.6554   -61.4344 H     1 SAM   0.4000 
 47 N7     -12.1900   -16.5630   -59.8010 N.2   1 SAM  -0.6960 
 48 C8     -11.8220   -15.4620   -59.0970 C.3   1 SAM   0.4551 
 49 H81    -10.7382   -15.4615   -58.9807 H     1 SAM   0.0800 
 50 H82    -12.2928   -15.4958   -58.1145 H     1 SAM   0.0800 
 51 N9     -12.1970   -14.3260   -59.7250 N.pl3 1 SAM  -0.7882 
@<TRIPOS>BOND
  1   1   2  1   
  2   1   3  1   
  3   1   4  1   
  4   1   5  1   
  5   5   6  1   
  6   5   7  1   
  7   5   9  1   
  8   7   8  ar  
  9   7  36  ar  
 10   9  10  1   
 11   9  11  1   
 12   9  12  1   
 13  12  13  1   
 14  12  14  1   
 15  12  15  1   
 16  15  16  1   
 17  15  20  1   
 18  16  17  1   
 19  16  18  1   
 20  16  19  1   
 21  20  21  1   
 22  20  22  1   
 23  20  23  1   
 24  23  24  1   
 25  23  25  1   
 26  23  26  1   
 27  25  34  1   
 28  26  27  1   
 29  26  28  1   
 30  26  30  1   
 31  28  29  1   
 32  30  31  1   
 33  30  32  1   
 34  30  34  1   
 35  32  33  1   
 36  34  35  1   
 37  34  51  1   
 38  37  38  2   
 39  37  43  1   
 40  38  39  1   
 41  38  40  1   
 42  40  41  2   
 43  41  42  1   
 44  41  51  1   
 45  42  43  1   
 46  42  47  2   
 47  43  44  2   
 48  44  45  1   
 49  44  46  1   
 50  47  48  1   
 51  48  49  1   
 52  48  50  1   
 53  48  51  1   
@<TRIPOS>SUBSTRUCTURE
  1 SAM  25 GROUP 4 B **** 0

# MOE 2022.02 (io_trps.svl 2020.11)
