# created with PyMOL 2.5.0
@<TRIPOS>MOLECULE
5V9J
27 29 1                 
SMALL
USER_CHARGES
@<TRIPOS>ATOM
1	   N	10.411	-32.105	-6.566	N.3	1	SAM1301	0.000	
2	  CA	9.080	-31.861	-7.128	C.3	1	SAM1301	0.000	
3	   C	8.460	-33.157	-7.548	C.2	1	SAM1301	0.000	
4	   O	9.052	-34.220	-7.249	O.co2	1	SAM1301	0.000	
5	  CB	9.150	-30.875	-8.306	C.3	1	SAM1301	0.000	
6	  CG	9.018	-29.423	-7.829	C.3	1	SAM1301	0.000	
7	  SD	7.511	-28.930	-7.256	S.3	1	SAM1301	0.000	
8	  CE	7.017	-27.649	-8.208	C.3	1	SAM1301	0.000	
9	 C5'	7.684	-28.248	-5.741	C.3	1	SAM1301	0.000	
10	 C4'	7.897	-29.216	-4.566	C.3	1	SAM1301	0.000	
11	 O4'	9.180	-29.851	-4.600	O.3	1	SAM1301	0.000	
12	 C3'	7.881	-28.486	-3.222	C.3	1	SAM1301	0.000	
13	 O3'	6.578	-28.254	-2.686	O.3	1	SAM1301	0.000	
14	 C2'	8.703	-29.385	-2.333	C.3	1	SAM1301	0.000	
15	 O2'	7.968	-30.525	-1.912	O.3	1	SAM1301	0.000	
16	 C1'	9.788	-29.809	-3.295	C.3	1	SAM1301	0.000	
17	 OXT	7.356	-33.124	-8.155	O.co2	1	SAM1301	0.000	
18	  N1	13.773	-27.722	-0.582	N.2	1	SAM1301	0.000	
19	  C2	12.876	-28.674	-0.218	C.2	1	SAM1301	0.000	
20	  N3	11.878	-29.128	-1.017	N.2	1	SAM1301	0.000	
21	  C4	11.746	-28.623	-2.278	C.2	1	SAM1301	0.000	
22	  C5	12.674	-27.587	-2.741	C.2	1	SAM1301	0.000	
23	  C6	13.730	-27.139	-1.811	C.2	1	SAM1301	0.000	
24	  N6	14.619	-26.204	-2.194	N.pl3	1	SAM1301	0.000	
25	  N7	12.329	-27.260	-4.000	N.2	1	SAM1301	0.000	
26	  C8	11.264	-28.023	-4.307	C.2	1	SAM1301	0.000	
27	  N9	10.912	-28.845	-3.289	N.2	1	SAM1301	0.000	
@<TRIPOS>BOND
1 1 2 1
2 2 3 1
3 2 5 1
4 3 4 ar
5 3 17 ar
6 5 6 1
7 6 7 1
8 7 8 1
9 7 9 1
10 9 10 1
11 10 11 1
12 10 12 1
13 11 16 1
14 12 13 1
15 12 14 1
16 14 15 1
17 14 16 1
18 16 27 1
19 18 19 ar
20 18 23 ar
21 19 20 ar
22 20 21 ar
23 21 22 ar
24 21 27 ar
25 22 23 ar
26 22 25 ar
27 23 24 1
28 25 26 ar
29 26 27 ar
@<TRIPOS>SUBSTRUCTURE
1	SAM1301	1	GROUP	1 A	SAM
