@<TRIPOS>MOLECULE
5V9J.A
51 53 1 0 0 
SMALL
USER_CHARGES


@<TRIPOS>ATOM
  1 N       10.4110   -32.1050    -6.5660 N.4   1 SAM  -0.8530 
  2 H1      11.0014   -32.5257    -7.2692 H     1 SAM   0.4500 
  3 H2      10.3334   -32.7281    -5.7749 H     1 SAM   0.4500 
  4 H3      10.8157   -31.2294    -6.2665 H     1 SAM   0.4500 
  5 CA       9.0800   -31.8610    -7.1280 C.3   1 SAM   0.3170 
  6 HA       8.4543   -31.4075    -6.3593 H     1 SAM   0.0800 
  7 C        8.4600   -33.1570    -7.5480 C.2   1 SAM   0.9060 
  8 O        9.0520   -34.2200    -7.2490 O.co2 1 SAM  -0.9000 
  9 CB       9.1500   -30.8750    -8.3060 C.3   1 SAM  -0.1600 
 10 HB1      8.3398   -31.0950    -9.0012 H     1 SAM   0.0800 
 11 HB2     10.1071   -30.9960    -8.8134 H     1 SAM   0.0800 
 12 CG       9.0180   -29.4230    -7.8290 C.3   1 SAM  -0.1525 
 13 HG1      9.2757   -28.7779    -8.6690 H     1 SAM   0.0800 
 14 HG2      9.7381   -29.2763    -7.0240 H     1 SAM   0.0800 
 15 SD       7.5110   -28.9300    -7.2560 S.3   1 SAM   0.9775 
 16 CE       7.0170   -27.6490    -8.2080 C.3   1 SAM  -0.2325 
 17 HE1      6.8734   -27.9920    -9.2326 H     1 SAM   0.0800 
 18 HE2      7.7773   -26.8681    -8.1895 H     1 SAM   0.0800 
 19 HE3      6.0781   -27.2511    -7.8230 H     1 SAM   0.0800 
 20 C5'      7.6840   -28.2480    -5.7410 C.3   1 SAM  -0.1525 
 21 H5'1     6.7826   -27.6712    -5.5340 H     1 SAM   0.0800 
 22 H5'2     8.5434   -27.5785    -5.7768 H     1 SAM   0.0800 
 23 C4'      7.8970   -29.2160    -4.5660 C.3   1 SAM   0.2000 
 24 H4'      7.0854   -29.9369    -4.6644 H     1 SAM   0.0800 
 25 O4'      9.1800   -29.8510    -4.6000 O.3   1 SAM  -0.5600 
 26 C3'      7.8810   -28.4860    -3.2220 C.3   1 SAM   0.2000 
 27 H3'      8.2772   -27.4751    -3.3176 H     1 SAM   0.0800 
 28 O3'      6.5780   -28.2540    -2.6860 O.3   1 SAM  -0.6800 
 29 H3'      6.1555   -29.1082    -2.5701 H     1 SAM   0.4000 
 30 C2'      8.7030   -29.3850    -2.3330 C.3   1 SAM   0.2000 
 31 H2'      9.0428   -28.9043    -1.4156 H     1 SAM   0.0800 
 32 O2'      7.9680   -30.5250    -1.9120 O.3   1 SAM  -0.6800 
 33 H2'      8.5632   -31.0840    -1.4072 H     1 SAM   0.4000 
 34 C1'      9.7880   -29.8090    -3.2950 C.3   1 SAM   0.5691 
 35 H1'     10.1974   -30.7782    -3.0101 H     1 SAM   0.0800 
 36 OXT      7.3560   -33.1240    -8.1550 O.co2 1 SAM  -0.9000 
 37 N1      13.7730   -27.7220    -0.5820 N.2   1 SAM  -0.6610 
 38 C2      12.8760   -28.6740    -0.2180 C.2   1 SAM   0.6010 
 39 H2      12.9626   -29.0973     0.7718 H     1 SAM   0.0600 
 40 N3      11.8780   -29.1280    -1.0170 N.2   1 SAM  -0.6610 
 41 C4      11.7460   -28.6230    -2.2780 C.2   1 SAM   0.5000 
 42 C5      12.6740   -27.5870    -2.7410 C.2   1 SAM   0.4500 
 43 C6      13.7300   -27.1390    -1.8110 C.2   1 SAM   0.6110 
 44 N6      14.6190   -26.2040    -2.1940 N.2   1 SAM  -0.2000 
 45 H62     15.3397   -25.9005    -1.5548 H     1 SAM   0.4000 
 46 H61     14.5655   -25.8059    -3.1207 H     1 SAM   0.4000 
 47 N7      12.3290   -27.2600    -4.0000 N.2   1 SAM  -0.6960 
 48 C8      11.2640   -28.0230    -4.3070 C.3   1 SAM   0.4551 
 49 H81     11.5066   -28.6293    -5.1797 H     1 SAM   0.0800 
 50 H82     10.4213   -27.3720    -4.5397 H     1 SAM   0.0800 
 51 N9      10.9120   -28.8450    -3.2890 N.pl3 1 SAM  -0.7882 
@<TRIPOS>BOND
  1   1   2  1   
  2   1   3  1   
  3   1   4  1   
  4   1   5  1   
  5   5   6  1   
  6   5   7  1   
  7   5   9  1   
  8   7   8  ar  
  9   7  36  ar  
 10   9  10  1   
 11   9  11  1   
 12   9  12  1   
 13  12  13  1   
 14  12  14  1   
 15  12  15  1   
 16  15  16  1   
 17  15  20  1   
 18  16  17  1   
 19  16  18  1   
 20  16  19  1   
 21  20  21  1   
 22  20  22  1   
 23  20  23  1   
 24  23  24  1   
 25  23  25  1   
 26  23  26  1   
 27  25  34  1   
 28  26  27  1   
 29  26  28  1   
 30  26  30  1   
 31  28  29  1   
 32  30  31  1   
 33  30  32  1   
 34  30  34  1   
 35  32  33  1   
 36  34  35  1   
 37  34  51  1   
 38  37  38  2   
 39  37  43  1   
 40  38  39  1   
 41  38  40  1   
 42  40  41  2   
 43  41  42  1   
 44  41  51  1   
 45  42  43  1   
 46  42  47  2   
 47  43  44  2   
 48  44  45  1   
 49  44  46  1   
 50  47  48  1   
 51  48  49  1   
 52  48  50  1   
 53  48  51  1   
@<TRIPOS>SUBSTRUCTURE
  1 SAM  25 GROUP 4 A **** 0

# MOE 2022.02 (io_trps.svl 2020.11)
