# created with PyMOL 2.4.0
@<TRIPOS>MOLECULE
temp
50 52 1                 
SMALL
USER_CHARGES
@<TRIPOS>ATOM
1	   N	-7.984	-12.831	-58.280	N.4	1	SAM1	0.000	
2	  CA	-8.162	-12.328	-56.928	C.3	1	SAM1	0.000	
3	   C	-7.227	-11.169	-56.661	C.2	1	SAM1	0.000	
4	   O	-6.521	-10.751	-57.618	O.co2	1	SAM1	0.000	
5	  CB	-7.955	-13.455	-55.914	C.3	1	SAM1	0.000	
6	  CG	-9.251	-14.249	-55.714	C.3	1	SAM1	0.000	
7	  SD	-10.441	-13.446	-54.858	S.3	1	SAM1	0.000	
8	  CE	-10.803	-14.389	-53.538	C.3	1	SAM1	0.000	
9	 C5'	-11.904	-13.457	-55.689	C.3	1	SAM1	0.000	
10	 C4'	-12.024	-12.572	-56.931	C.3	1	SAM1	0.000	
11	 O4'	-11.195	-13.045	-58.002	O.3	1	SAM1	0.000	
12	 C3'	-13.440	-12.595	-57.499	C.3	1	SAM1	0.000	
13	 O3'	-14.450	-11.807	-56.810	O.3	1	SAM1	0.000	
14	 C2'	-13.203	-12.200	-58.933	C.3	1	SAM1	0.000	
15	 O2'	-12.979	-10.788	-59.054	O.3	1	SAM1	0.000	
16	 C1'	-11.919	-12.939	-59.242	C.3	1	SAM1	0.000	
17	 OXT	-7.215	-10.670	-55.493	O.co2	1	SAM1	0.000	
18	  N1	-14.046	-15.921	-62.991	N.2	1	SAM1	0.000	
19	  C2	-14.012	-14.569	-62.883	C.2	1	SAM1	0.000	
20	  N3	-13.421	-13.925	-61.852	N.2	1	SAM1	0.000	
21	  C4	-12.824	-14.640	-60.851	C.2	1	SAM1	0.000	
22	  C5	-12.830	-16.109	-60.897	C.2	1	SAM1	0.000	
23	  C6	-13.497	-16.742	-62.049	C.2	1	SAM1	0.000	
24	  N6	-13.529	-18.086	-62.148	N.pl3	1	SAM1	0.000	
25	  N7	-12.190	-16.563	-59.801	N.2	1	SAM1	0.000	
26	  C8	-11.822	-15.462	-59.097	C.2	1	SAM1	0.000	
27	  N9	-12.197	-14.326	-59.725	N.2	1	SAM1	0.000	
28	  HA	-9.182	-11.959	-56.822	 H	1	SAM1	0.000	
29	 HB1	-7.647	-13.026	-54.960	 H	1	SAM1	0.000	
30	 HB2	-7.177	-14.126	-56.278	 H	1	SAM1	0.000	
31	 HG1	-9.007	-15.166	-55.177	 H	1	SAM1	0.000	
32	 HG2	-9.651	-14.499	-56.697	 H	1	SAM1	0.000	
33	 HE1	-9.925	-14.470	-52.897	 H	1	SAM1	0.000	
34	 HE2	-11.102	-15.383	-53.872	 H	1	SAM1	0.000	
35	 HE3	-11.620	-13.933	-52.979	 H	1	SAM1	0.000	
36	  H1	-7.041	-13.176	-58.389	 H	1	SAM1	0.000	
37	  H2	-8.149	-12.085	-58.941	 H	1	SAM1	0.000	
38	  H2	-14.479	-13.979	-63.658	 H	1	SAM1	0.000	
39	  H3	-8.639	-13.582	-58.449	 H	1	SAM1	0.000	
40	  H8	-11.296	-15.491	-58.154	 H	1	SAM1	0.000	
41	 H1'	-11.366	-12.405	-60.014	 H	1	SAM1	0.000	
42	 H2'	-14.042	-12.431	-59.590	 H	1	SAM1	0.000	
43	 H2'	-13.783	-10.342	-58.779	 H	1	SAM1	0.000	
44	 H3'	-13.906	-13.572	-57.372	 H	1	SAM1	0.000	
45	 H3'	-15.282	-11.933	-57.273	 H	1	SAM1	0.000	
46	 H4'	-11.731	-11.576	-56.600	 H	1	SAM1	0.000	
47	 H61	-13.097	-18.655	-61.434	 H	1	SAM1	0.000	
48	 H62	-13.985	-18.524	-62.936	 H	1	SAM1	0.000	
49	H5'1	-12.678	-13.142	-54.989	 H	1	SAM1	0.000	
50	H5'2	-12.093	-14.484	-56.002	 H	1	SAM1	0.000	
@<TRIPOS>BOND
1 1 2 1
2 1 36 1
3 1 37 1
4 1 39 1
5 2 3 1
6 2 5 1
7 2 28 1
8 3 4 ar
9 3 17 ar
10 5 6 1
11 5 29 1
12 5 30 1
13 6 7 1
14 6 31 1
15 6 32 1
16 7 8 1
17 7 9 1
18 8 33 1
19 8 34 1
20 8 35 1
21 9 10 1
22 9 49 1
23 9 50 1
24 10 11 1
25 10 12 1
26 10 46 1
27 11 16 1
28 12 13 1
29 12 14 1
30 12 44 1
31 13 45 1
32 14 15 1
33 14 16 1
34 14 42 1
35 15 43 1
36 16 27 1
37 16 41 1
38 18 19 ar
39 18 23 ar
40 19 20 ar
41 19 38 1
42 20 21 ar
43 21 22 ar
44 21 27 ar
45 22 23 ar
46 22 25 ar
47 23 24 1
48 24 47 1
49 24 48 1
50 25 26 ar
51 26 27 ar
52 26 40 1
@<TRIPOS>SUBSTRUCTURE
1	SAM1	1	GROUP	1 B	SAM
