# created with PyMOL 2.4.0
@<TRIPOS>MOLECULE
temp
50 52 1                 
SMALL
USER_CHARGES
@<TRIPOS>ATOM
1	   N	10.411	-32.105	-6.566	N.4	1	SAM1	0.000	
2	  CA	9.080	-31.861	-7.128	C.3	1	SAM1	0.000	
3	   C	8.460	-33.157	-7.548	C.2	1	SAM1	0.000	
4	   O	9.052	-34.220	-7.249	O.co2	1	SAM1	0.000	
5	  CB	9.150	-30.875	-8.306	C.3	1	SAM1	0.000	
6	  CG	9.018	-29.423	-7.829	C.3	1	SAM1	0.000	
7	  SD	7.511	-28.930	-7.256	S.3	1	SAM1	0.000	
8	  CE	7.017	-27.649	-8.208	C.3	1	SAM1	0.000	
9	 C5'	7.684	-28.248	-5.741	C.3	1	SAM1	0.000	
10	 C4'	7.897	-29.216	-4.566	C.3	1	SAM1	0.000	
11	 O4'	9.180	-29.851	-4.600	O.3	1	SAM1	0.000	
12	 C3'	7.881	-28.486	-3.222	C.3	1	SAM1	0.000	
13	 O3'	6.578	-28.254	-2.686	O.3	1	SAM1	0.000	
14	 C2'	8.703	-29.385	-2.333	C.3	1	SAM1	0.000	
15	 O2'	7.968	-30.525	-1.912	O.3	1	SAM1	0.000	
16	 C1'	9.788	-29.809	-3.295	C.3	1	SAM1	0.000	
17	 OXT	7.356	-33.124	-8.155	O.co2	1	SAM1	0.000	
18	  N1	13.773	-27.722	-0.582	N.2	1	SAM1	0.000	
19	  C2	12.876	-28.674	-0.218	C.2	1	SAM1	0.000	
20	  N3	11.878	-29.128	-1.017	N.2	1	SAM1	0.000	
21	  C4	11.746	-28.623	-2.278	C.2	1	SAM1	0.000	
22	  C5	12.674	-27.587	-2.741	C.2	1	SAM1	0.000	
23	  C6	13.730	-27.139	-1.811	C.2	1	SAM1	0.000	
24	  N6	14.619	-26.204	-2.194	N.pl3	1	SAM1	0.000	
25	  N7	12.329	-27.260	-4.000	N.2	1	SAM1	0.000	
26	  C8	11.264	-28.023	-4.307	C.2	1	SAM1	0.000	
27	  N9	10.912	-28.845	-3.289	N.2	1	SAM1	0.000	
28	  HA	8.454	-31.407	-6.359	 H	1	SAM1	0.000	
29	 HB1	8.340	-31.095	-9.001	 H	1	SAM1	0.000	
30	 HB2	10.107	-30.996	-8.813	 H	1	SAM1	0.000	
31	 HG1	9.276	-28.778	-8.669	 H	1	SAM1	0.000	
32	 HG2	9.738	-29.276	-7.024	 H	1	SAM1	0.000	
33	 HE1	6.873	-27.992	-9.233	 H	1	SAM1	0.000	
34	 HE2	7.777	-26.868	-8.189	 H	1	SAM1	0.000	
35	 HE3	6.078	-27.251	-7.823	 H	1	SAM1	0.000	
36	  H1	11.001	-32.526	-7.269	 H	1	SAM1	0.000	
37	  H2	10.333	-32.728	-5.775	 H	1	SAM1	0.000	
38	  H2	12.963	-29.097	0.772	 H	1	SAM1	0.000	
39	  H3	10.816	-31.229	-6.266	 H	1	SAM1	0.000	
40	  H8	10.749	-27.985	-5.256	 H	1	SAM1	0.000	
41	 H1'	10.197	-30.778	-3.010	 H	1	SAM1	0.000	
42	 H2'	9.043	-28.904	-1.416	 H	1	SAM1	0.000	
43	 H2'	7.237	-30.216	-1.371	 H	1	SAM1	0.000	
44	 H3'	8.277	-27.475	-3.318	 H	1	SAM1	0.000	
45	 H3'	6.685	-27.802	-1.846	 H	1	SAM1	0.000	
46	 H4'	7.085	-29.937	-4.664	 H	1	SAM1	0.000	
47	 H61	14.566	-25.806	-3.121	 H	1	SAM1	0.000	
48	 H62	15.340	-25.900	-1.555	 H	1	SAM1	0.000	
49	H5'1	6.783	-27.671	-5.534	 H	1	SAM1	0.000	
50	H5'2	8.543	-27.579	-5.777	 H	1	SAM1	0.000	
@<TRIPOS>BOND
1 1 2 1
2 1 36 1
3 1 37 1
4 1 39 1
5 2 3 1
6 2 5 1
7 2 28 1
8 3 4 ar
9 3 17 ar
10 5 6 1
11 5 29 1
12 5 30 1
13 6 7 1
14 6 31 1
15 6 32 1
16 7 8 1
17 7 9 1
18 8 33 1
19 8 34 1
20 8 35 1
21 9 10 1
22 9 49 1
23 9 50 1
24 10 11 1
25 10 12 1
26 10 46 1
27 11 16 1
28 12 13 1
29 12 14 1
30 12 44 1
31 13 45 1
32 14 15 1
33 14 16 1
34 14 42 1
35 15 43 1
36 16 27 1
37 16 41 1
38 18 19 ar
39 18 23 ar
40 19 20 ar
41 19 38 1
42 20 21 ar
43 21 22 ar
44 21 27 ar
45 22 23 ar
46 22 25 ar
47 23 24 1
48 24 47 1
49 24 48 1
50 25 26 ar
51 26 27 ar
52 26 40 1
@<TRIPOS>SUBSTRUCTURE
1	SAM1	1	GROUP	1 A	SAM
