# created with PyMOL 2.5.0
@<TRIPOS>MOLECULE
5V9J
27 29 1                 
SMALL
USER_CHARGES
@<TRIPOS>ATOM
1	   N	-7.984	-12.831	-58.280	N.3	1	SAM1301	0.000	
2	  CA	-8.162	-12.328	-56.928	C.3	1	SAM1301	0.000	
3	   C	-7.227	-11.169	-56.661	C.2	1	SAM1301	0.000	
4	   O	-6.521	-10.751	-57.618	O.co2	1	SAM1301	0.000	
5	  CB	-7.955	-13.455	-55.914	C.3	1	SAM1301	0.000	
6	  CG	-9.251	-14.249	-55.714	C.3	1	SAM1301	0.000	
7	  SD	-10.441	-13.446	-54.858	S.3	1	SAM1301	0.000	
8	  CE	-10.803	-14.389	-53.538	C.3	1	SAM1301	0.000	
9	 C5'	-11.904	-13.457	-55.689	C.3	1	SAM1301	0.000	
10	 C4'	-12.024	-12.572	-56.931	C.3	1	SAM1301	0.000	
11	 O4'	-11.195	-13.045	-58.002	O.3	1	SAM1301	0.000	
12	 C3'	-13.440	-12.595	-57.499	C.3	1	SAM1301	0.000	
13	 O3'	-14.450	-11.807	-56.810	O.3	1	SAM1301	0.000	
14	 C2'	-13.203	-12.200	-58.933	C.3	1	SAM1301	0.000	
15	 O2'	-12.979	-10.788	-59.054	O.3	1	SAM1301	0.000	
16	 C1'	-11.919	-12.939	-59.242	C.3	1	SAM1301	0.000	
17	 OXT	-7.215	-10.670	-55.493	O.co2	1	SAM1301	0.000	
18	  N1	-14.046	-15.921	-62.991	N.2	1	SAM1301	0.000	
19	  C2	-14.012	-14.569	-62.883	C.2	1	SAM1301	0.000	
20	  N3	-13.421	-13.925	-61.852	N.2	1	SAM1301	0.000	
21	  C4	-12.824	-14.640	-60.851	C.2	1	SAM1301	0.000	
22	  C5	-12.830	-16.109	-60.897	C.2	1	SAM1301	0.000	
23	  C6	-13.497	-16.742	-62.049	C.2	1	SAM1301	0.000	
24	  N6	-13.529	-18.086	-62.148	N.pl3	1	SAM1301	0.000	
25	  N7	-12.190	-16.563	-59.801	N.2	1	SAM1301	0.000	
26	  C8	-11.822	-15.462	-59.097	C.2	1	SAM1301	0.000	
27	  N9	-12.197	-14.326	-59.725	N.2	1	SAM1301	0.000	
@<TRIPOS>BOND
1 1 2 1
2 2 3 1
3 2 5 1
4 3 4 ar
5 3 17 ar
6 5 6 1
7 6 7 1
8 7 8 1
9 7 9 1
10 9 10 1
11 10 11 1
12 10 12 1
13 11 16 1
14 12 13 1
15 12 14 1
16 14 15 1
17 14 16 1
18 16 27 1
19 18 19 ar
20 18 23 ar
21 19 20 ar
22 20 21 ar
23 21 22 ar
24 21 27 ar
25 22 23 ar
26 22 25 ar
27 23 24 1
28 25 26 ar
29 26 27 ar
@<TRIPOS>SUBSTRUCTURE
1	SAM1301	1	GROUP	1 B	SAM
