@<TRIPOS>MOLECULE
7DCF.B
54 57 1 0 0 
SMALL
USER_CHARGES


@<TRIPOS>ATOM
  1 C1      32.4250    17.9430    19.9920 C.3   1 H   0.1080 
  2 N1      30.3430    18.8620    21.0960 N.4   1 H  -0.8530 
  3 H11     30.5283    18.8804    22.0887 H     1 H   0.4500 
  4 H12     29.3487    18.7760    20.9406 H     1 H   0.4500 
  5 H13     30.6767    19.7175    20.6753 H     1 H   0.4500 
  6 O1      34.6130    13.8560    17.9500 O.3   1 H  -0.3625 
  7 C2      33.4190    18.5280    21.0170 C.3   1 H   0.0000 
  8 H21     34.1393    17.8055    21.4006 H     1 H   0.0000 
  9 H22     32.9451    19.0462    21.8506 H     1 H   0.0000 
 10 N2      30.4580    16.6010    20.4000 N.pl3 1 H  -0.8691 
 11 H2      29.5344    16.3189    20.6958 H     1 H   0.4000 
 12 C3      32.7580    19.1440    19.0520 C.3   1 H   0.0000 
 13 H31     31.9979    19.9251    19.0397 H     1 H   0.0000 
 14 H32     32.9997    18.8562    18.0289 H     1 H   0.0000 
 15 N3      32.0700     9.5070    19.4660 N.4   1 H  -0.9590 
 16 H3      31.6588    10.0777    20.1907 H     1 H   0.4500 
 17 C4      33.9900    19.4740    19.9240 C.3   1 H   0.0000 
 18 H41     34.9413    19.1514    19.5008 H     1 H   0.0000 
 19 H42     34.0621    20.5191    20.2252 H     1 H   0.0000 
 20 C5      32.5570    16.5210    19.5170 C.ar  1 H  -0.1080 
 21 C6      30.9910    17.7880    20.5280 C.3   1 H   0.7921 
 22 H6      30.5969    18.0686    19.5512 H     1 H   0.0800 
 23 C7      31.3990    15.8130    19.7850 C.ar  1 H   0.1000 
 24 C8      31.2490    14.4510    19.4680 C.ar  1 H  -0.1500 
 25 H8      30.3385    13.9119    19.6840 H     1 H   0.1500 
 26 C9      33.6750    15.9330    18.8960 C.ar  1 H  -0.1500 
 27 H9      34.5665    16.5026    18.6789 H     1 H   0.1500 
 28 C10     35.8060    14.5570    17.6280 C.3   1 H   0.0400 
 29 H101    36.5117    13.8747    17.1541 H     1 H   0.0800 
 30 H102    36.2472    14.9610    18.5392 H     1 H   0.0800 
 31 H103    35.5744    15.3732    16.9437 H     1 H   0.0800 
 32 C11     33.5730    14.5350    18.5640 C.ar  1 H   0.0825 
 33 C12     32.2250    12.3830    18.5760 C.3   1 H   0.0635 
 34 H12     32.7944    12.4857    17.6522 H     1 H   0.0800 
 35 C13     31.0180    11.8510    17.8080 C.3   1 H  -0.1600 
 36 H131    30.8196    12.5195    16.9702 H     1 H   0.0800 
 37 H132    30.1583    11.8431    18.4780 H     1 H   0.0800 
 38 C14     33.2150    11.6510    19.1400 C.3   1 H  -0.1600 
 39 H141    33.1785    11.8760    20.2059 H     1 H   0.0800 
 40 H142    34.1438    12.0359    18.7190 H     1 H   0.0800 
 41 C15     33.3140    10.1330    19.0410 C.3   1 H   0.3430 
 42 H151    33.5197     9.8546    18.0074 H     1 H   0.0800 
 43 H152    34.1260     9.7850    19.6795 H     1 H   0.0800 
 44 C16     32.4060     8.1410    19.9210 C.3   1 H   0.2630 
 45 H161    33.1399     8.1961    20.7251 H     1 H   0.0800 
 46 H162    32.8210     7.5726    19.0887 H     1 H   0.0800 
 47 H163    31.5049     7.6472    20.2847 H     1 H   0.0800 
 48 C17     31.0760     9.3990    18.3790 C.3   1 H   0.3430 
 49 H171    30.0833     9.5046    18.8166 H     1 H   0.0800 
 50 H172    31.1718     8.4104    17.9299 H     1 H   0.0800 
 51 C18     31.2190    10.4440    17.2650 C.3   1 H  -0.1600 
 52 H181    32.2161    10.3684    16.8313 H     1 H   0.0800 
 53 H182    30.4722    10.2489    16.4953 H     1 H   0.0800 
 54 C19     32.3550    13.8290    18.8520 C.ar  1 H  -0.1435 
@<TRIPOS>BOND
  1   1   7  1   
  2   1  12  1   
  3   1  20  1   
  4   1  21  1   
  5   2   3  1   
  6   2   4  1   
  7   2   5  1   
  8   2  21  1   
  9   6  28  1   
 10   6  32  1   
 11   7   8  1   
 12   7   9  1   
 13   7  17  1   
 14  10  11  1   
 15  10  21  1   
 16  10  23  1   
 17  12  13  1   
 18  12  14  1   
 19  12  17  1   
 20  15  16  1   
 21  15  41  1   
 22  15  44  1   
 23  15  48  1   
 24  17  18  1   
 25  17  19  1   
 26  20  23  ar  
 27  20  26  ar  
 28  21  22  1   
 29  23  24  ar  
 30  24  25  1   
 31  24  54  ar  
 32  26  27  1   
 33  26  32  ar  
 34  28  29  1   
 35  28  30  1   
 36  28  31  1   
 37  32  54  ar  
 38  33  34  1   
 39  33  35  1   
 40  33  38  1   
 41  33  54  1   
 42  35  36  1   
 43  35  37  1   
 44  35  51  1   
 45  38  39  1   
 46  38  40  1   
 47  38  41  1   
 48  41  42  1   
 49  41  43  1   
 50  44  45  1   
 51  44  46  1   
 52  44  47  1   
 53  48  49  1   
 54  48  50  1   
 55  48  51  1   
 56  51  52  1   
 57  51  53  1   
@<TRIPOS>SUBSTRUCTURE
  1 H  54 GROUP 4 B **** 0

# MOE 2022.02 (io_trps.svl 2020.11)
