# created with PyMOL 2.5.0
@<TRIPOS>MOLECULE
7DCF
23 26 1                 
SMALL
USER_CHARGES
@<TRIPOS>ATOM
1	  C1	1.926	16.371	57.631	C.3	1	H301506	0.000	
2	  N1	4.033	17.363	56.627	N.3	1	H301506	0.000	
3	  O1	-0.375	12.092	59.241	O.3	1	H301506	0.000	
4	  C2	0.943	17.109	56.690	C.3	1	H301506	0.000	
5	  N2	3.838	15.020	57.056	N.pl3	1	H301506	0.000	
6	  C3	1.669	17.505	58.662	C.3	1	H301506	0.000	
7	  N3	2.079	7.732	57.391	N.3	1	H301506	0.000	
8	  C4	0.384	17.885	57.896	C.3	1	H301506	0.000	
9	  C5	1.728	14.907	57.942	C.2	1	H301506	0.000	
10	  C6	3.363	16.222	57.066	C.3	1	H301506	0.000	
11	  C7	2.860	14.195	57.588	C.2	1	H301506	0.000	
12	  C8	2.943	12.805	57.790	C.2	1	H301506	0.000	
13	  C9	0.602	14.250	58.483	C.2	1	H301506	0.000	
14	 C10	-1.562	12.788	59.612	C.3	1	H301506	0.000	
15	 C11	0.671	12.831	58.703	C.2	1	H301506	0.000	
16	 C12	1.934	10.647	58.457	C.3	1	H301506	0.000	
17	 C13	3.115	10.008	59.102	C.3	1	H301506	0.000	
18	 C14	0.956	9.943	57.831	C.3	1	H301506	0.000	
19	 C15	0.789	8.404	57.707	C.3	1	H301506	0.000	
20	 C16	1.878	6.505	56.602	C.3	1	H301506	0.000	
21	 C17	2.918	7.463	58.540	C.3	1	H301506	0.000	
22	 C18	2.916	8.574	59.581	C.3	1	H301506	0.000	
23	 C19	1.845	12.121	58.347	C.2	1	H301506	0.000	
@<TRIPOS>BOND
1 1 4 1
2 1 6 1
3 1 9 1
4 1 10 1
5 2 10 1
6 3 14 1
7 3 15 1
8 4 8 1
9 5 10 1
10 5 11 1
11 6 8 1
12 7 19 1
13 7 20 1
14 7 21 1
15 9 11 ar
16 9 13 ar
17 11 12 ar
18 12 23 ar
19 13 15 ar
20 15 23 ar
21 16 17 1
22 16 18 1
23 16 23 1
24 17 22 1
25 18 19 1
26 21 22 1
@<TRIPOS>SUBSTRUCTURE
1	H301506	1	GROUP	1 A	H30
