# created with PyMOL 2.5.0
@<TRIPOS>MOLECULE
7DCF
23 26 1                 
SMALL
USER_CHARGES
@<TRIPOS>ATOM
1	  C1	32.425	17.943	19.992	C.3	1	H301506	0.000	
2	  N1	30.343	18.862	21.096	N.3	1	H301506	0.000	
3	  O1	34.613	13.856	17.950	O.3	1	H301506	0.000	
4	  C2	33.419	18.528	21.017	C.3	1	H301506	0.000	
5	  N2	30.458	16.601	20.400	N.pl3	1	H301506	0.000	
6	  C3	32.758	19.144	19.052	C.3	1	H301506	0.000	
7	  N3	32.070	9.507	19.466	N.3	1	H301506	0.000	
8	  C4	33.990	19.474	19.924	C.3	1	H301506	0.000	
9	  C5	32.557	16.521	19.517	C.2	1	H301506	0.000	
10	  C6	30.991	17.788	20.528	C.3	1	H301506	0.000	
11	  C7	31.399	15.813	19.785	C.2	1	H301506	0.000	
12	  C8	31.249	14.451	19.468	C.2	1	H301506	0.000	
13	  C9	33.675	15.933	18.896	C.2	1	H301506	0.000	
14	 C10	35.806	14.557	17.628	C.3	1	H301506	0.000	
15	 C11	33.573	14.535	18.564	C.2	1	H301506	0.000	
16	 C12	32.225	12.383	18.576	C.3	1	H301506	0.000	
17	 C13	31.018	11.851	17.808	C.3	1	H301506	0.000	
18	 C14	33.215	11.651	19.140	C.3	1	H301506	0.000	
19	 C15	33.314	10.133	19.041	C.3	1	H301506	0.000	
20	 C16	32.406	8.141	19.921	C.3	1	H301506	0.000	
21	 C17	31.076	9.399	18.379	C.3	1	H301506	0.000	
22	 C18	31.219	10.444	17.265	C.3	1	H301506	0.000	
23	 C19	32.355	13.829	18.852	C.2	1	H301506	0.000	
@<TRIPOS>BOND
1 1 4 1
2 1 6 1
3 1 9 1
4 1 10 1
5 2 10 1
6 3 14 1
7 3 15 1
8 4 8 1
9 5 10 1
10 5 11 1
11 6 8 1
12 7 19 1
13 7 20 1
14 7 21 1
15 9 11 ar
16 9 13 ar
17 11 12 ar
18 12 23 ar
19 13 15 ar
20 15 23 ar
21 16 17 1
22 16 18 1
23 16 23 1
24 17 22 1
25 18 19 1
26 21 22 1
@<TRIPOS>SUBSTRUCTURE
1	H301506	1	GROUP	1 B	H30
