@<TRIPOS>MOLECULE
7DCF.A
54 57 1 0 0 
SMALL
USER_CHARGES


@<TRIPOS>ATOM
  1 C1       1.9260    16.3710    57.6310 C.3   1 H   0.1080 
  2 N1       4.0330    17.3630    56.6270 N.4   1 H  -0.8530 
  3 H11      3.8408    17.5099    55.6464 H     1 H   0.4500 
  4 H12      5.0268    17.2423    56.7610 H     1 H   0.4500 
  5 H13      3.7168    18.1634    57.1556 H     1 H   0.4500 
  6 O1      -0.3750    12.0920    59.2410 O.3   1 H  -0.3625 
  7 C2       0.9430    17.1090    56.6900 C.3   1 H   0.0000 
  8 H21      0.2172    16.4575    56.2033 H     1 H   0.0000 
  9 H22      1.4276    17.7361    55.9416 H     1 H   0.0000 
 10 N2       3.8380    15.0200    57.0560 N.pl3 1 H  -0.8691 
 11 H2       4.7486    14.7361    56.7237 H     1 H   0.4000 
 12 C3       1.6690    17.5050    58.6620 C.3   1 H   0.0000 
 13 H31      2.4318    18.2835    58.6706 H     1 H   0.0000 
 14 H32      1.4964    17.1543    59.6795 H     1 H   0.0000 
 15 N3       2.0790     7.7320    57.3910 N.4   1 H  -0.9590 
 16 H3       2.5824     8.4063    56.8325 H     1 H   0.4500 
 17 C4       0.3840    17.8850    57.8960 C.3   1 H   0.0000 
 18 H41     -0.5330    17.4713    58.3157 H     1 H   0.0000 
 19 H42      0.2563    18.9543    57.7273 H     1 H   0.0000 
 20 C5       1.7280    14.9070    57.9420 C.ar  1 H  -0.1080 
 21 C6       3.3630    16.2220    57.0660 C.3   1 H   0.7921 
 22 H6       3.7694    16.3713    58.0663 H     1 H   0.0800 
 23 C7       2.8600    14.1950    57.5880 C.ar  1 H   0.1000 
 24 C8       2.9430    12.8050    57.7900 C.ar  1 H  -0.1500 
 25 H8       3.8402    12.2676    57.5205 H     1 H   0.1500 
 26 C9       0.6020    14.2500    58.4830 C.ar  1 H  -0.1500 
 27 H9      -0.2935    14.8023    58.7268 H     1 H   0.1500 
 28 C10     -1.5620    12.7880    59.6120 C.3   1 H   0.0400 
 29 H101    -2.2868    12.0808    60.0153 H     1 H   0.0800 
 30 H102    -1.9835    13.2803    58.7356 H     1 H   0.0800 
 31 H103    -1.3235    13.5352    60.3689 H     1 H   0.0800 
 32 C11      0.6710    12.8310    58.7030 C.ar  1 H   0.0825 
 33 C12      1.9340    10.6470    58.4570 C.3   1 H   0.0635 
 34 H12      1.8144    10.1865    59.4377 H     1 H   0.0800 
 35 C13      3.1150    10.0080    59.1020 C.3   1 H  -0.1600 
 36 H131     3.3927    10.6131    59.9650 H     1 H   0.0800 
 37 H132     3.9314    10.0089    58.3798 H     1 H   0.0800 
 38 C14      0.9560     9.9430    57.8310 C.3   1 H  -0.1600 
 39 H141     0.9841    10.2969    56.8004 H     1 H   0.0800 
 40 H142     0.0339    10.2787    58.3054 H     1 H   0.0800 
 41 C15      0.7890     8.4040    57.7070 C.3   1 H   0.3430 
 42 H151     0.4094     8.0130    58.6510 H     1 H   0.0800 
 43 H152     0.0752     8.1894    56.9116 H     1 H   0.0800 
 44 C16      1.8780     6.5050    56.6020 C.3   1 H   0.2630 
 45 H161     1.2452     6.7254    55.7423 H     1 H   0.0800 
 46 H162     1.3974     5.7486    57.2225 H     1 H   0.0800 
 47 H163     2.8426     6.1327    56.2571 H     1 H   0.0800 
 48 C17      2.9180     7.4630    58.5400 C.3   1 H   0.3430 
 49 H171     3.9411     7.3212    58.1918 H     1 H   0.0800 
 50 H172     2.5657     6.5474    59.0150 H     1 H   0.0800 
 51 C18      2.9160     8.5740    59.5810 C.3   1 H  -0.1600 
 52 H181     1.9552     8.5347    60.0943 H     1 H   0.0800 
 53 H182     3.7154     8.3555    60.2890 H     1 H   0.0800 
 54 C19      1.8450    12.1210    58.3470 C.ar  1 H  -0.1435 
@<TRIPOS>BOND
  1   1   7  1   
  2   1  12  1   
  3   1  20  1   
  4   1  21  1   
  5   2   3  1   
  6   2   4  1   
  7   2   5  1   
  8   2  21  1   
  9   6  28  1   
 10   6  32  1   
 11   7   8  1   
 12   7   9  1   
 13   7  17  1   
 14  10  11  1   
 15  10  21  1   
 16  10  23  1   
 17  12  13  1   
 18  12  14  1   
 19  12  17  1   
 20  15  16  1   
 21  15  41  1   
 22  15  44  1   
 23  15  48  1   
 24  17  18  1   
 25  17  19  1   
 26  20  23  ar  
 27  20  26  ar  
 28  21  22  1   
 29  23  24  ar  
 30  24  25  1   
 31  24  54  ar  
 32  26  27  1   
 33  26  32  ar  
 34  28  29  1   
 35  28  30  1   
 36  28  31  1   
 37  32  54  ar  
 38  33  34  1   
 39  33  35  1   
 40  33  38  1   
 41  33  54  1   
 42  35  36  1   
 43  35  37  1   
 44  35  51  1   
 45  38  39  1   
 46  38  40  1   
 47  38  41  1   
 48  41  42  1   
 49  41  43  1   
 50  44  45  1   
 51  44  46  1   
 52  44  47  1   
 53  48  49  1   
 54  48  50  1   
 55  48  51  1   
 56  51  52  1   
 57  51  53  1   
@<TRIPOS>SUBSTRUCTURE
  1 H  54 GROUP 4 A **** 0

# MOE 2022.02 (io_trps.svl 2020.11)
