# created with PyMOL 2.4.0
@<TRIPOS>MOLECULE
temp
50 52 1                 
SMALL
USER_CHARGES
@<TRIPOS>ATOM
1	   N	-5.394	0.818	56.113	N.4	1	SAM1	0.000	
2	  CA	-4.974	1.727	55.010	C.3	1	SAM1	0.000	
3	   C	-5.843	1.521	53.764	C.2	1	SAM1	0.000	
4	   O	-6.820	0.783	53.841	O.co2	1	SAM1	0.000	
5	  CB	-3.481	1.591	54.683	C.3	1	SAM1	0.000	
6	  CG	-2.574	2.387	55.663	C.3	1	SAM1	0.000	
7	  SD	-2.670	4.172	55.215	S.3	1	SAM1	0.000	
8	  CE	-0.952	4.615	55.042	C.3	1	SAM1	0.000	
9	 C5'	-3.011	4.901	56.826	C.3	1	SAM1	0.000	
10	 C4'	-4.484	4.947	57.200	C.3	1	SAM1	0.000	
11	 O4'	-4.946	3.626	57.585	O.3	1	SAM1	0.000	
12	 C3'	-4.795	5.835	58.403	C.3	1	SAM1	0.000	
13	 O3'	-4.877	7.202	58.011	O.3	1	SAM1	0.000	
14	 C2'	-6.103	5.207	58.874	C.3	1	SAM1	0.000	
15	 O2'	-7.146	5.552	58.001	O.3	1	SAM1	0.000	
16	 C1'	-5.788	3.717	58.715	C.3	1	SAM1	0.000	
17	 OXT	-5.569	2.107	52.674	O.co2	1	SAM1	0.000	
18	  N1	-5.819	2.303	63.662	N.2	1	SAM1	0.000	
19	  C2	-6.781	2.792	62.865	C.2	1	SAM1	0.000	
20	  N3	-6.717	3.130	61.587	N.2	1	SAM1	0.000	
21	  C4	-5.481	2.925	61.105	C.2	1	SAM1	0.000	
22	  C5	-4.393	2.433	61.790	C.2	1	SAM1	0.000	
23	  C6	-4.591	2.094	63.137	C.2	1	SAM1	0.000	
24	  N6	-3.649	1.608	63.927	N.pl3	1	SAM1	0.000	
25	  N7	-3.286	2.347	60.966	N.2	1	SAM1	0.000	
26	  C8	-3.704	2.817	59.827	C.2	1	SAM1	0.000	
27	  N9	-5.034	3.174	59.836	N.2	1	SAM1	0.000	
28	  HA	-5.126	2.748	55.360	 H	1	SAM1	0.000	
29	 HB1	-3.311	1.962	53.672	 H	1	SAM1	0.000	
30	 HB2	-3.208	0.537	54.734	 H	1	SAM1	0.000	
31	 HG1	-1.544	2.040	55.577	 H	1	SAM1	0.000	
32	 HG2	-2.922	2.244	56.686	 H	1	SAM1	0.000	
33	 HE1	-0.574	4.240	54.091	 H	1	SAM1	0.000	
34	 HE2	-0.380	4.176	55.859	 H	1	SAM1	0.000	
35	 HE3	-0.852	5.700	55.070	 H	1	SAM1	0.000	
36	  H1	-5.267	-0.142	55.825	 H	1	SAM1	0.000	
37	  H2	-6.367	0.979	56.329	 H	1	SAM1	0.000	
38	  H2	-7.745	2.929	63.333	 H	1	SAM1	0.000	
39	  H3	-4.832	1.001	56.932	 H	1	SAM1	0.000	
40	  H8	-3.070	2.917	58.959	 H	1	SAM1	0.000	
41	 H1'	-6.725	3.165	58.639	 H	1	SAM1	0.000	
42	 H2'	-6.412	5.512	59.874	 H	1	SAM1	0.000	
43	 H2'	-7.270	6.502	58.058	 H	1	SAM1	0.000	
44	 H3'	-4.048	5.870	59.195	 H	1	SAM1	0.000	
45	 H3'	-5.151	7.708	58.779	 H	1	SAM1	0.000	
46	 H4'	-4.976	5.342	56.311	 H	1	SAM1	0.000	
47	 H61	-2.717	1.459	63.569	 H	1	SAM1	0.000	
48	 H62	-3.862	1.385	64.889	 H	1	SAM1	0.000	
49	H5'1	-2.628	5.922	56.825	 H	1	SAM1	0.000	
50	H5'2	-2.486	4.317	57.582	 H	1	SAM1	0.000	
@<TRIPOS>BOND
1 1 2 1
2 1 36 1
3 1 37 1
4 1 39 1
5 2 3 1
6 2 5 1
7 2 28 1
8 3 4 ar
9 3 17 ar
10 5 6 1
11 5 29 1
12 5 30 1
13 6 7 1
14 6 31 1
15 6 32 1
16 7 8 1
17 7 9 1
18 8 33 1
19 8 34 1
20 8 35 1
21 9 10 1
22 9 49 1
23 9 50 1
24 10 11 1
25 10 12 1
26 10 46 1
27 11 16 1
28 12 13 1
29 12 14 1
30 12 44 1
31 13 45 1
32 14 15 1
33 14 16 1
34 14 42 1
35 15 43 1
36 16 27 1
37 16 41 1
38 18 19 ar
39 18 23 ar
40 19 20 ar
41 19 38 1
42 20 21 ar
43 21 22 ar
44 21 27 ar
45 22 23 ar
46 22 25 ar
47 23 24 1
48 24 47 1
49 24 48 1
50 25 26 ar
51 26 27 ar
52 26 40 1
@<TRIPOS>SUBSTRUCTURE
1	SAM1	1	GROUP	1 A	SAM
