@<TRIPOS>MOLECULE
7DCF.A
51 53 1 0 0 
SMALL
USER_CHARGES


@<TRIPOS>ATOM
  1 N       -5.3940     0.8180    56.1130 N.4   1 SAM  -0.8530 
  2 H1      -5.2670    -0.1417    55.8251 H     1 SAM   0.4500 
  3 H2      -6.3674     0.9786    56.3294 H     1 SAM   0.4500 
  4 H3      -4.8324     1.0009    56.9323 H     1 SAM   0.4500 
  5 CA      -4.9740     1.7270    55.0100 C.3   1 SAM   0.3170 
  6 HA      -5.1262     2.7480    55.3599 H     1 SAM   0.0800 
  7 C       -5.8430     1.5210    53.7640 C.2   1 SAM   0.9060 
  8 O       -6.8200     0.7830    53.8410 O.co2 1 SAM  -0.9000 
  9 CB      -3.4810     1.5910    54.6830 C.3   1 SAM  -0.1600 
 10 HB1     -3.3108     1.9617    53.6722 H     1 SAM   0.0800 
 11 HB2     -3.2080     0.5370    54.7342 H     1 SAM   0.0800 
 12 CG      -2.5740     2.3870    55.6630 C.3   1 SAM  -0.1525 
 13 HG1     -1.5443     2.0399    55.5773 H     1 SAM   0.0800 
 14 HG2     -2.9216     2.2441    56.6862 H     1 SAM   0.0800 
 15 SD      -2.6700     4.1720    55.2150 S.3   1 SAM   0.9775 
 16 CE      -0.9520     4.6150    55.0420 C.3   1 SAM  -0.2325 
 17 HE1     -0.5740     4.2395    54.0911 H     1 SAM   0.0800 
 18 HE2     -0.3796     4.1763    55.8593 H     1 SAM   0.0800 
 19 HE3     -0.8520     5.7000    55.0698 H     1 SAM   0.0800 
 20 C5'     -3.0110     4.9010    56.8260 C.3   1 SAM  -0.1525 
 21 H5'1    -2.6282     5.9216    56.8254 H     1 SAM   0.0800 
 22 H5'2    -2.4863     4.3166    57.5818 H     1 SAM   0.0800 
 23 C4'     -4.4840     4.9470    57.2000 C.3   1 SAM   0.2000 
 24 H4'     -4.9761     5.3423    56.3114 H     1 SAM   0.0800 
 25 O4'     -4.9460     3.6260    57.5850 O.3   1 SAM  -0.5600 
 26 C3'     -4.7950     5.8350    58.4030 C.3   1 SAM   0.2000 
 27 H3'     -4.0475     5.8702    59.1955 H     1 SAM   0.0800 
 28 O3'     -4.8770     7.2020    58.0110 O.3   1 SAM  -0.6800 
 29 H3'     -5.1510     7.7083    58.7792 H     1 SAM   0.4000 
 30 C2'     -6.1030     5.2070    58.8740 C.3   1 SAM   0.2000 
 31 H2'     -6.4121     5.5119    59.8738 H     1 SAM   0.0800 
 32 O2'     -7.1460     5.5520    58.0010 O.3   1 SAM  -0.6800 
 33 H2'     -7.2699     6.5023    58.0580 H     1 SAM   0.4000 
 34 C1'     -5.7880     3.7170    58.7150 C.3   1 SAM   0.5691 
 35 H1'     -6.7246     3.1646    58.6392 H     1 SAM   0.0800 
 36 OXT     -5.5690     2.1070    52.6740 O.co2 1 SAM  -0.9000 
 37 N1      -5.8190     2.3030    63.6620 N.2   1 SAM  -0.6610 
 38 C2      -6.7810     2.7920    62.8650 C.2   1 SAM   0.6010 
 39 H2      -7.7447     2.9294    63.3328 H     1 SAM   0.0600 
 40 N3      -6.7170     3.1300    61.5870 N.2   1 SAM  -0.6610 
 41 C4      -5.4810     2.9250    61.1050 C.2   1 SAM   0.5000 
 42 C5      -4.3930     2.4330    61.7900 C.2   1 SAM   0.4500 
 43 C6      -4.5910     2.0940    63.1370 C.2   1 SAM   0.6110 
 44 N6      -3.6490     1.6080    63.9270 N.2   1 SAM  -0.2000 
 45 H62     -3.8618     1.3853    64.8889 H     1 SAM   0.4000 
 46 H61     -2.7165     1.4594    63.5687 H     1 SAM   0.4000 
 47 N7      -3.2860     2.3470    60.9660 N.2   1 SAM  -0.6960 
 48 C8      -3.7040     2.8170    59.8270 C.3   1 SAM   0.4551 
 49 H81     -3.5567     2.0532    59.0634 H     1 SAM   0.0800 
 50 H82     -3.1118     3.6978    59.5788 H     1 SAM   0.0800 
 51 N9      -5.0340     3.1740    59.8360 N.pl3 1 SAM  -0.7882 
@<TRIPOS>BOND
  1   1   2  1   
  2   1   3  1   
  3   1   4  1   
  4   1   5  1   
  5   5   6  1   
  6   5   7  1   
  7   5   9  1   
  8   7   8  ar  
  9   7  36  ar  
 10   9  10  1   
 11   9  11  1   
 12   9  12  1   
 13  12  13  1   
 14  12  14  1   
 15  12  15  1   
 16  15  16  1   
 17  15  20  1   
 18  16  17  1   
 19  16  18  1   
 20  16  19  1   
 21  20  21  1   
 22  20  22  1   
 23  20  23  1   
 24  23  24  1   
 25  23  25  1   
 26  23  26  1   
 27  25  34  1   
 28  26  27  1   
 29  26  28  1   
 30  26  30  1   
 31  28  29  1   
 32  30  31  1   
 33  30  32  1   
 34  30  34  1   
 35  32  33  1   
 36  34  35  1   
 37  34  51  1   
 38  37  38  2   
 39  37  43  1   
 40  38  39  1   
 41  38  40  1   
 42  40  41  2   
 43  41  42  1   
 44  41  51  1   
 45  42  43  1   
 46  42  47  2   
 47  43  44  2   
 48  44  45  1   
 49  44  46  1   
 50  47  48  1   
 51  48  49  1   
 52  48  50  1   
 53  48  51  1   
@<TRIPOS>SUBSTRUCTURE
  1 SAM  25 GROUP 4 A **** 0

# MOE 2022.02 (io_trps.svl 2020.11)
