@<TRIPOS>MOLECULE
7DCF.B
51 53 1 0 0 
SMALL
USER_CHARGES


@<TRIPOS>ATOM
  1 N       39.4940     2.2840    20.0290 N.4   1 SAM  -0.8530 
  2 H1      39.3699     1.3049    20.2434 H     1 SAM   0.4500 
  3 H2      40.4696     2.4666    19.8419 H     1 SAM   0.4500 
  4 H3      38.9448     2.5229    19.2157 H     1 SAM   0.4500 
  5 CA      39.0480     3.1070    21.1890 C.3   1 SAM   0.3170 
  6 HA      39.1819     4.1637    20.9578 H     1 SAM   0.0800 
  7 C       39.8910     2.7200    22.4050 C.2   1 SAM   0.9060 
  8 O       40.8360     1.9380    22.3140 O.co2 1 SAM  -0.9000 
  9 CB      37.5540     2.8840    21.4830 C.3   1 SAM  -0.1600 
 10 HB1     37.3560     3.1435    22.5230 H     1 SAM   0.0800 
 11 HB2     37.3145     1.8334    21.3188 H     1 SAM   0.0800 
 12 CG      36.6640     3.7440    20.5780 C.3   1 SAM  -0.1525 
 13 HG1     35.6301     3.4029    20.6314 H     1 SAM   0.0800 
 14 HG2     37.0114     3.6905    19.5462 H     1 SAM   0.0800 
 15 SD      36.7990     5.4650    21.2060 S.3   1 SAM   0.9775 
 16 CE      35.0920     5.9230    21.4670 C.3   1 SAM  -0.2325 
 17 HE1     34.7157     5.4276    22.3620 H     1 SAM   0.0800 
 18 HE2     34.4980     5.6175    20.6056 H     1 SAM   0.0800 
 19 HE3     35.0208     7.0034    21.5926 H     1 SAM   0.0800 
 20 C5'     37.1200     6.4050    19.7160 C.3   1 SAM  -0.1525 
 21 H5'1    36.7583     7.4206    19.8765 H     1 SAM   0.0800 
 22 H5'2    36.5599     5.9442    18.9024 H     1 SAM   0.0800 
 23 C4'     38.5740     6.4900    19.2910 C.3   1 SAM   0.2000 
 24 H4'     39.1043     6.8594    20.1687 H     1 SAM   0.0800 
 25 O4'     39.0100     5.1890    18.8240 O.3   1 SAM  -0.5600 
 26 C3'     38.8240     7.4230    18.1030 C.3   1 SAM   0.2000 
 27 H3'     38.0390     7.4708    17.3483 H     1 SAM   0.0800 
 28 O3'     38.9570     8.7680    18.5660 O.3   1 SAM  -0.6800 
 29 H3'     39.1998     9.3116    17.8129 H     1 SAM   0.4000 
 30 C2'     40.1380     6.8420    17.5820 C.3   1 SAM   0.2000 
 31 H2'     40.4191     7.2079    16.5945 H     1 SAM   0.0800 
 32 O2'     41.2240     7.1620    18.4200 O.3   1 SAM  -0.6800 
 33 H2'     41.3334     8.1156    18.4020 H     1 SAM   0.4000 
 34 C1'     39.8380     5.3460    17.6820 C.3   1 SAM   0.5691 
 35 H1'     40.7634     4.7738    17.7479 H     1 SAM   0.0800 
 36 OXT     39.6310     3.2200    23.5170 O.co2 1 SAM  -0.9000 
 37 N1      40.0050     4.4700    12.6200 N.2   1 SAM  -0.6610 
 38 C2      40.9200     4.9030    13.4920 C.2   1 SAM   0.6010 
 39 H2      41.8756     5.1660    13.0629 H     1 SAM   0.0600 
 40 N3      40.8290     5.0590    14.8150 N.2   1 SAM  -0.6610 
 41 C4      39.5850     4.7770    15.2300 C.2   1 SAM   0.5000 
 42 C5      38.5290     4.3300    14.4540 C.2   1 SAM   0.4500 
 43 C6      38.7690     4.1650    13.0770 C.2   1 SAM   0.6110 
 44 N6      37.8470     3.7670    12.2020 N.2   1 SAM  -0.2000 
 45 H62     38.0864     3.6689    11.2257 H     1 SAM   0.4000 
 46 H61     36.9085     3.5633    12.5148 H     1 SAM   0.4000 
 47 N7      37.3950     4.1560    15.2360 N.2   1 SAM  -0.6960 
 48 C8      37.7740     4.5160    16.4370 C.3   1 SAM   0.4551 
 49 H81     37.6122     3.6781    17.1152 H     1 SAM   0.0800 
 50 H82     37.1630     5.3618    16.7522 H     1 SAM   0.0800 
 51 N9      39.0990     4.8850    16.5090 N.pl3 1 SAM  -0.7882 
@<TRIPOS>BOND
  1   1   2  1   
  2   1   3  1   
  3   1   4  1   
  4   1   5  1   
  5   5   6  1   
  6   5   7  1   
  7   5   9  1   
  8   7   8  ar  
  9   7  36  ar  
 10   9  10  1   
 11   9  11  1   
 12   9  12  1   
 13  12  13  1   
 14  12  14  1   
 15  12  15  1   
 16  15  16  1   
 17  15  20  1   
 18  16  17  1   
 19  16  18  1   
 20  16  19  1   
 21  20  21  1   
 22  20  22  1   
 23  20  23  1   
 24  23  24  1   
 25  23  25  1   
 26  23  26  1   
 27  25  34  1   
 28  26  27  1   
 29  26  28  1   
 30  26  30  1   
 31  28  29  1   
 32  30  31  1   
 33  30  32  1   
 34  30  34  1   
 35  32  33  1   
 36  34  35  1   
 37  34  51  1   
 38  37  38  2   
 39  37  43  1   
 40  38  39  1   
 41  38  40  1   
 42  40  41  2   
 43  41  42  1   
 44  41  51  1   
 45  42  43  1   
 46  42  47  2   
 47  43  44  2   
 48  44  45  1   
 49  44  46  1   
 50  47  48  1   
 51  48  49  1   
 52  48  50  1   
 53  48  51  1   
@<TRIPOS>SUBSTRUCTURE
  1 SAM  25 GROUP 4 B **** 0

# MOE 2022.02 (io_trps.svl 2020.11)
