# created with PyMOL 2.5.0
@<TRIPOS>MOLECULE
7DCF
27 29 1                 
SMALL
USER_CHARGES
@<TRIPOS>ATOM
1	   N	39.494	2.284	20.029	N.3	1	SAM1505	0.000	
2	  CA	39.048	3.107	21.189	C.3	1	SAM1505	0.000	
3	   C	39.891	2.720	22.405	C.2	1	SAM1505	0.000	
4	   O	40.836	1.938	22.314	O.co2	1	SAM1505	0.000	
5	  CB	37.554	2.884	21.483	C.3	1	SAM1505	0.000	
6	  CG	36.664	3.744	20.578	C.3	1	SAM1505	0.000	
7	  SD	36.799	5.465	21.206	S.3	1	SAM1505	0.000	
8	  CE	35.092	5.923	21.467	C.3	1	SAM1505	0.000	
9	 C5'	37.120	6.405	19.716	C.3	1	SAM1505	0.000	
10	 C4'	38.574	6.490	19.291	C.3	1	SAM1505	0.000	
11	 O4'	39.010	5.189	18.824	O.3	1	SAM1505	0.000	
12	 C3'	38.824	7.423	18.103	C.3	1	SAM1505	0.000	
13	 O3'	38.957	8.768	18.566	O.3	1	SAM1505	0.000	
14	 C2'	40.138	6.842	17.582	C.3	1	SAM1505	0.000	
15	 O2'	41.224	7.162	18.420	O.3	1	SAM1505	0.000	
16	 C1'	39.838	5.346	17.682	C.3	1	SAM1505	0.000	
17	 OXT	39.631	3.220	23.517	O.co2	1	SAM1505	0.000	
18	  N1	40.005	4.470	12.620	N.2	1	SAM1505	0.000	
19	  C2	40.920	4.903	13.492	C.2	1	SAM1505	0.000	
20	  N3	40.829	5.059	14.815	N.2	1	SAM1505	0.000	
21	  C4	39.585	4.777	15.230	C.2	1	SAM1505	0.000	
22	  C5	38.529	4.330	14.454	C.2	1	SAM1505	0.000	
23	  C6	38.769	4.165	13.077	C.2	1	SAM1505	0.000	
24	  N6	37.847	3.767	12.202	N.pl3	1	SAM1505	0.000	
25	  N7	37.395	4.156	15.236	N.2	1	SAM1505	0.000	
26	  C8	37.774	4.516	16.437	C.2	1	SAM1505	0.000	
27	  N9	39.099	4.885	16.509	N.2	1	SAM1505	0.000	
@<TRIPOS>BOND
1 1 2 1
2 2 3 1
3 2 5 1
4 3 4 ar
5 3 17 ar
6 5 6 1
7 6 7 1
8 7 8 1
9 7 9 1
10 9 10 1
11 10 11 1
12 10 12 1
13 11 16 1
14 12 13 1
15 12 14 1
16 14 15 1
17 14 16 1
18 16 27 1
19 18 19 ar
20 18 23 ar
21 19 20 ar
22 20 21 ar
23 21 22 ar
24 21 27 ar
25 22 23 ar
26 22 25 ar
27 23 24 1
28 25 26 ar
29 26 27 ar
@<TRIPOS>SUBSTRUCTURE
1	SAM1505	1	GROUP	1 B	SAM
