# created with PyMOL 2.4.0
@<TRIPOS>MOLECULE
temp
50 52 1                 
SMALL
USER_CHARGES
@<TRIPOS>ATOM
1	   N	39.494	2.284	20.029	N.4	1	SAM1	0.000	
2	  CA	39.048	3.107	21.189	C.3	1	SAM1	0.000	
3	   C	39.891	2.720	22.405	C.2	1	SAM1	0.000	
4	   O	40.836	1.938	22.314	O.co2	1	SAM1	0.000	
5	  CB	37.554	2.884	21.483	C.3	1	SAM1	0.000	
6	  CG	36.664	3.744	20.578	C.3	1	SAM1	0.000	
7	  SD	36.799	5.465	21.206	S.3	1	SAM1	0.000	
8	  CE	35.092	5.923	21.467	C.3	1	SAM1	0.000	
9	 C5'	37.120	6.405	19.716	C.3	1	SAM1	0.000	
10	 C4'	38.574	6.490	19.291	C.3	1	SAM1	0.000	
11	 O4'	39.010	5.189	18.824	O.3	1	SAM1	0.000	
12	 C3'	38.824	7.423	18.103	C.3	1	SAM1	0.000	
13	 O3'	38.957	8.768	18.566	O.3	1	SAM1	0.000	
14	 C2'	40.138	6.842	17.582	C.3	1	SAM1	0.000	
15	 O2'	41.224	7.162	18.420	O.3	1	SAM1	0.000	
16	 C1'	39.838	5.346	17.682	C.3	1	SAM1	0.000	
17	 OXT	39.631	3.220	23.517	O.co2	1	SAM1	0.000	
18	  N1	40.005	4.470	12.620	N.2	1	SAM1	0.000	
19	  C2	40.920	4.903	13.492	C.2	1	SAM1	0.000	
20	  N3	40.829	5.059	14.815	N.2	1	SAM1	0.000	
21	  C4	39.585	4.777	15.230	C.2	1	SAM1	0.000	
22	  C5	38.529	4.330	14.454	C.2	1	SAM1	0.000	
23	  C6	38.769	4.165	13.077	C.2	1	SAM1	0.000	
24	  N6	37.847	3.767	12.202	N.pl3	1	SAM1	0.000	
25	  N7	37.395	4.156	15.236	N.2	1	SAM1	0.000	
26	  C8	37.774	4.516	16.437	C.2	1	SAM1	0.000	
27	  N9	39.099	4.885	16.509	N.2	1	SAM1	0.000	
28	  HA	39.182	4.164	20.958	 H	1	SAM1	0.000	
29	 HB1	37.356	3.144	22.523	 H	1	SAM1	0.000	
30	 HB2	37.314	1.833	21.319	 H	1	SAM1	0.000	
31	 HG1	35.630	3.403	20.631	 H	1	SAM1	0.000	
32	 HG2	37.011	3.691	19.546	 H	1	SAM1	0.000	
33	 HE1	34.716	5.428	22.362	 H	1	SAM1	0.000	
34	 HE2	34.498	5.617	20.606	 H	1	SAM1	0.000	
35	 HE3	35.021	7.003	21.593	 H	1	SAM1	0.000	
36	  H1	39.370	1.305	20.243	 H	1	SAM1	0.000	
37	  H2	40.470	2.467	19.842	 H	1	SAM1	0.000	
38	  H2	41.876	5.166	13.063	 H	1	SAM1	0.000	
39	  H3	38.945	2.523	19.216	 H	1	SAM1	0.000	
40	  H8	37.111	4.523	17.289	 H	1	SAM1	0.000	
41	 H1'	40.763	4.774	17.748	 H	1	SAM1	0.000	
42	 H2'	40.419	7.208	16.594	 H	1	SAM1	0.000	
43	 H2'	41.333	8.116	18.402	 H	1	SAM1	0.000	
44	 H3'	38.039	7.471	17.348	 H	1	SAM1	0.000	
45	 H3'	39.200	9.312	17.813	 H	1	SAM1	0.000	
46	 H4'	39.104	6.859	20.169	 H	1	SAM1	0.000	
47	 H61	36.909	3.563	12.515	 H	1	SAM1	0.000	
48	 H62	38.086	3.669	11.226	 H	1	SAM1	0.000	
49	H5'1	36.758	7.421	19.876	 H	1	SAM1	0.000	
50	H5'2	36.560	5.944	18.902	 H	1	SAM1	0.000	
@<TRIPOS>BOND
1 1 2 1
2 1 36 1
3 1 37 1
4 1 39 1
5 2 3 1
6 2 5 1
7 2 28 1
8 3 4 ar
9 3 17 ar
10 5 6 1
11 5 29 1
12 5 30 1
13 6 7 1
14 6 31 1
15 6 32 1
16 7 8 1
17 7 9 1
18 8 33 1
19 8 34 1
20 8 35 1
21 9 10 1
22 9 49 1
23 9 50 1
24 10 11 1
25 10 12 1
26 10 46 1
27 11 16 1
28 12 13 1
29 12 14 1
30 12 44 1
31 13 45 1
32 14 15 1
33 14 16 1
34 14 42 1
35 15 43 1
36 16 27 1
37 16 41 1
38 18 19 ar
39 18 23 ar
40 19 20 ar
41 19 38 1
42 20 21 ar
43 21 22 ar
44 21 27 ar
45 22 23 ar
46 22 25 ar
47 23 24 1
48 24 47 1
49 24 48 1
50 25 26 ar
51 26 27 ar
52 26 40 1
@<TRIPOS>SUBSTRUCTURE
1	SAM1	1	GROUP	1 B	SAM
