# created with PyMOL 2.5.0
@<TRIPOS>MOLECULE
7DCF
27 29 1                 
SMALL
USER_CHARGES
@<TRIPOS>ATOM
1	   N	-5.394	0.818	56.113	N.3	1	SAM1505	0.000	
2	  CA	-4.974	1.727	55.010	C.3	1	SAM1505	0.000	
3	   C	-5.843	1.521	53.764	C.2	1	SAM1505	0.000	
4	   O	-6.820	0.783	53.841	O.co2	1	SAM1505	0.000	
5	  CB	-3.481	1.591	54.683	C.3	1	SAM1505	0.000	
6	  CG	-2.574	2.387	55.663	C.3	1	SAM1505	0.000	
7	  SD	-2.670	4.172	55.215	S.3	1	SAM1505	0.000	
8	  CE	-0.952	4.615	55.042	C.3	1	SAM1505	0.000	
9	 C5'	-3.011	4.901	56.826	C.3	1	SAM1505	0.000	
10	 C4'	-4.484	4.947	57.200	C.3	1	SAM1505	0.000	
11	 O4'	-4.946	3.626	57.585	O.3	1	SAM1505	0.000	
12	 C3'	-4.795	5.835	58.403	C.3	1	SAM1505	0.000	
13	 O3'	-4.877	7.202	58.011	O.3	1	SAM1505	0.000	
14	 C2'	-6.103	5.207	58.874	C.3	1	SAM1505	0.000	
15	 O2'	-7.146	5.552	58.001	O.3	1	SAM1505	0.000	
16	 C1'	-5.788	3.717	58.715	C.3	1	SAM1505	0.000	
17	 OXT	-5.569	2.107	52.674	O.co2	1	SAM1505	0.000	
18	  N1	-5.819	2.303	63.662	N.2	1	SAM1505	0.000	
19	  C2	-6.781	2.792	62.865	C.2	1	SAM1505	0.000	
20	  N3	-6.717	3.130	61.587	N.2	1	SAM1505	0.000	
21	  C4	-5.481	2.925	61.105	C.2	1	SAM1505	0.000	
22	  C5	-4.393	2.433	61.790	C.2	1	SAM1505	0.000	
23	  C6	-4.591	2.094	63.137	C.2	1	SAM1505	0.000	
24	  N6	-3.649	1.608	63.927	N.pl3	1	SAM1505	0.000	
25	  N7	-3.286	2.347	60.966	N.2	1	SAM1505	0.000	
26	  C8	-3.704	2.817	59.827	C.2	1	SAM1505	0.000	
27	  N9	-5.034	3.174	59.836	N.2	1	SAM1505	0.000	
@<TRIPOS>BOND
1 1 2 1
2 2 3 1
3 2 5 1
4 3 4 ar
5 3 17 ar
6 5 6 1
7 6 7 1
8 7 8 1
9 7 9 1
10 9 10 1
11 10 11 1
12 10 12 1
13 11 16 1
14 12 13 1
15 12 14 1
16 14 15 1
17 14 16 1
18 16 27 1
19 18 19 ar
20 18 23 ar
21 19 20 ar
22 20 21 ar
23 21 22 ar
24 21 27 ar
25 22 23 ar
26 22 25 ar
27 23 24 1
28 25 26 ar
29 26 27 ar
@<TRIPOS>SUBSTRUCTURE
1	SAM1505	1	GROUP	1 A	SAM
