@<TRIPOS>MOLECULE
6ZRB.A
39 41 1 0 0 
SMALL
USER_CHARGES


@<TRIPOS>ATOM
  1 C01     18.9540    -3.1980    13.4250 C.3   1 QON   0.1910 
  2 H011    19.7445    -3.1640    14.1747 H     1 QON   0.0800 
  3 H012    19.2204    -2.5542    12.5868 H     1 QON   0.0800 
  4 C02     17.6840    -2.7270    14.0250 C.2   1 QON   0.5690 
  5 O03     16.8150    -3.5590    14.2560 O.2   1 QON  -0.5700 
  6 N04     17.4770    -1.4030    14.1830 N.am  1 QON  -0.6602 
  7 C05     16.0960    -1.0110    14.5070 C.3   1 QON   0.1401 
  8 H051    15.5681    -1.8753    14.9100 H     1 QON   0.0800 
  9 H052    15.6006    -0.6748    13.5962 H     1 QON   0.0800 
 10 C06     16.0600     0.1030    15.5240 C.3   1 QON  -0.1600 
 11 H061    16.4390    -0.2581    16.4801 H     1 QON   0.0800 
 12 H062    15.0362     0.4555    15.6488 H     1 QON   0.0800 
 13 C07     16.9340     1.2340    15.0200 C.3   1 QON   0.2201 
 14 H07     16.6043     1.5377    14.0264 H     1 QON   0.0800 
 15 C08     18.3660     0.7960    14.8980 C.3   1 QON  -0.1600 
 16 H081    18.7286     0.4889    15.8790 H     1 QON   0.0800 
 17 H082    18.9638     1.6321    14.5352 H     1 QON   0.0800 
 18 C09     18.5060    -0.3800    13.9220 C.3   1 QON   0.1401 
 19 H091    18.3941    -0.0129    12.9018 H     1 QON   0.0800 
 20 H092    19.4928    -0.8274    14.0409 H     1 QON   0.0800 
 21 N10     16.8160     2.3440    15.9440 N.am  1 QON  -0.7301 
 22 H10     16.7206     2.1578    16.9321 H     1 QON   0.3700 
 23 C11     16.8310     3.6130    15.5130 C.2   1 QON   0.7160 
 24 O12     17.2440     3.9550    14.4300 O.2   1 QON  -0.5700 
 25 C13     16.1960     4.6110    16.3970 C.2   1 QON   0.2028 
 26 N14     15.7340     4.2760    17.6160 N.2   1 QON  -0.4097 
 27 O15     15.2080     5.4020    18.1320 O.3   1 QON  -0.0191 
 28 C16     15.2620     6.4200    17.2510 C.2   1 QON   0.0550 
 29 C17     15.9080     5.9710    16.1360 C.2   1 QON  -0.1500 
 30 H17     16.1478     6.5332    15.2456 H     1 QON   0.1500 
 31 C18     14.7160     7.7550    17.6090 C.3   1 QON  -0.0150 
 32 H18     14.4025     7.4061    18.5929 H     1 QON   0.1000 
 33 C19     14.0910     8.5850    16.4860 C.3   1 QON  -0.2000 
 34 H191    13.1946     9.1755    16.6756 H     1 QON   0.1000 
 35 H192    14.0605     8.1947    15.4687 H     1 QON   0.1000 
 36 C20     15.4040     8.9850    17.1030 C.3   1 QON  -0.2000 
 37 H201    16.3241     8.8922    16.5259 H     1 QON   0.1000 
 38 H202    15.4581     9.8730    17.7328 H     1 QON   0.1000 
 39 CL1     18.8320    -4.2220    13.0720 Cl    1 QON  -0.2900 
@<TRIPOS>BOND
  1   1   2  1   
  2   1   3  1   
  3   1   4  1   
  4   1  39  1   
  5   4   5  2   
  6   4   6  am  
  7   6   7  1   
  8   6  18  1   
  9   7   8  1   
 10   7   9  1   
 11   7  10  1   
 12  10  11  1   
 13  10  12  1   
 14  10  13  1   
 15  13  14  1   
 16  13  15  1   
 17  13  21  1   
 18  15  16  1   
 19  15  17  1   
 20  15  18  1   
 21  18  19  1   
 22  18  20  1   
 23  21  22  1   
 24  21  23  am  
 25  23  24  2   
 26  23  25  1   
 27  25  26  2   
 28  25  29  1   
 29  26  27  1   
 30  27  28  1   
 31  28  29  2   
 32  28  31  1   
 33  29  30  1   
 34  31  32  1   
 35  31  33  1   
 36  31  36  1   
 37  33  34  1   
 38  33  35  1   
 39  33  36  1   
 40  36  37  1   
 41  36  38  1   
@<TRIPOS>SUBSTRUCTURE
  1 QON  21 GROUP 4 A **** 0

# MOE 2022.02 (io_trps.svl 2020.11)
