# created with PyMOL 2.5.2
@<TRIPOS>MOLECULE
6ZRB
21 23 1                 
SMALL
USER_CHARGES
@<TRIPOS>ATOM
1	 C01	18.954	-3.198	13.425	C.3	1	QON502	0.000	
2	 C02	17.684	-2.727	14.025	C.2	1	QON502	0.000	
3	 O03	16.815	-3.559	14.256	O.2	1	QON502	0.000	
4	 N04	17.477	-1.403	14.183	N.pl3	1	QON502	0.000	
5	 C05	16.096	-1.011	14.507	C.3	1	QON502	0.000	
6	 C06	16.060	0.103	15.524	C.3	1	QON502	0.000	
7	 C07	16.934	1.234	15.020	C.3	1	QON502	0.000	
8	 C08	18.366	0.796	14.898	C.3	1	QON502	0.000	
9	 C09	18.506	-0.380	13.922	C.3	1	QON502	0.000	
10	 N10	16.816	2.344	15.944	N.pl3	1	QON502	0.000	
11	 C11	16.831	3.613	15.513	C.2	1	QON502	0.000	
12	 O12	17.244	3.955	14.430	O.2	1	QON502	0.000	
13	 C13	16.196	4.611	16.397	C.2	1	QON502	0.000	
14	 N14	15.734	4.276	17.616	N.2	1	QON502	0.000	
15	 O15	15.208	5.402	18.132	O.2	1	QON502	0.000	
16	 C16	15.262	6.420	17.251	C.2	1	QON502	0.000	
17	 C17	15.908	5.971	16.136	C.2	1	QON502	0.000	
18	 C18	14.716	7.755	17.609	C.3	1	QON502	0.000	
19	 C19	14.091	8.585	16.486	C.3	1	QON502	0.000	
20	 C20	15.404	8.985	17.103	C.3	1	QON502	0.000	
21	 CL1	18.832	-4.222	13.072	Cl	1	QON502	0.000	
@<TRIPOS>BOND
1 1 2 1
2 1 21 1
3 2 3 2
4 2 4 1
5 4 5 1
6 4 9 1
7 5 6 1
8 6 7 1
9 7 8 1
10 7 10 1
11 8 9 1
12 10 11 1
13 11 12 2
14 11 13 1
15 13 14 ar
16 13 17 ar
17 14 15 ar
18 15 16 ar
19 16 17 ar
20 16 18 1
21 18 19 1
22 18 20 1
23 19 20 1
@<TRIPOS>SUBSTRUCTURE
1	QON502	1	GROUP	1 A	QON
