# created with PyMOL 2.5.0
@<TRIPOS>MOLECULE
6ZRB
27 29 1                 
SMALL
USER_CHARGES
@<TRIPOS>ATOM
1	   N	10.858	14.654	23.076	N.3	1	SAM501	0.000	
2	  CA	10.737	14.573	21.599	C.3	1	SAM501	0.000	
3	   C	9.692	15.584	21.103	C.2	1	SAM501	0.000	
4	   O	9.365	15.527	19.903	O.co2	1	SAM501	0.000	
5	  CB	10.383	13.146	21.180	C.3	1	SAM501	0.000	
6	  CG	11.613	12.244	21.044	C.3	1	SAM501	0.000	
7	  SD	12.599	12.786	19.612	S.3	1	SAM501	0.000	
8	  CE	12.768	11.263	18.688	C.3	1	SAM501	0.000	
9	 C5'	14.270	12.898	20.304	C.3	1	SAM501	0.000	
10	 C4'	14.519	14.099	21.182	C.3	1	SAM501	0.000	
11	 O4'	13.766	13.972	22.405	O.3	1	SAM501	0.000	
12	 C3'	15.968	14.283	21.626	C.3	1	SAM501	0.000	
13	 O3'	16.713	14.906	20.587	O.3	1	SAM501	0.000	
14	 C2'	15.753	15.136	22.873	C.3	1	SAM501	0.000	
15	 O2'	15.394	16.473	22.552	O.3	1	SAM501	0.000	
16	 C1'	14.549	14.431	23.488	C.3	1	SAM501	0.000	
17	 OXT	9.325	16.465	21.914	O.co2	1	SAM501	0.000	
18	  N1	16.178	12.856	28.116	N.2	1	SAM501	0.000	
19	  C2	16.039	14.076	27.588	C.2	1	SAM501	0.000	
20	  N3	15.637	14.420	26.368	N.2	1	SAM501	0.000	
21	  C4	15.317	13.332	25.646	C.2	1	SAM501	0.000	
22	  C5	15.408	12.015	26.053	C.2	1	SAM501	0.000	
23	  C6	15.878	11.774	27.355	C.2	1	SAM501	0.000	
24	  N6	15.969	10.565	27.897	N.pl3	1	SAM501	0.000	
25	  N7	15.004	11.163	25.028	N.2	1	SAM501	0.000	
26	  C8	14.719	11.967	24.039	C.2	1	SAM501	0.000	
27	  N9	14.879	13.292	24.346	N.2	1	SAM501	0.000	
@<TRIPOS>BOND
1 1 2 1
2 2 3 1
3 2 5 1
4 3 4 ar
5 3 17 ar
6 5 6 1
7 6 7 1
8 7 8 1
9 7 9 1
10 9 10 1
11 10 11 1
12 10 12 1
13 11 16 1
14 12 13 1
15 12 14 1
16 14 15 1
17 14 16 1
18 16 27 1
19 18 19 ar
20 18 23 ar
21 19 20 ar
22 20 21 ar
23 21 22 ar
24 21 27 ar
25 22 23 ar
26 22 25 ar
27 23 24 1
28 25 26 ar
29 26 27 ar
@<TRIPOS>SUBSTRUCTURE
1	SAM501	1	GROUP	1 A	SAM
