@<TRIPOS>MOLECULE
6ZRB.A
51 53 1 0 0 
SMALL
USER_CHARGES


@<TRIPOS>ATOM
  1 N       10.8580    14.6540    23.0760 N.4   1 SAM  -0.8530 
  2 H1       9.9720    14.4184    23.4998 H     1 SAM   0.4500 
  3 H2      11.1191    15.5929    23.3414 H     1 SAM   0.4500 
  4 H3      11.5653    14.0059    23.3919 H     1 SAM   0.4500 
  5 CA      10.7370    14.5730    21.5990 C.3   1 SAM   0.3170 
  6 HA      11.6927    14.8271    21.1406 H     1 SAM   0.0800 
  7 C        9.6920    15.5840    21.1030 C.2   1 SAM   0.9060 
  8 O        9.3650    15.5270    19.9030 O.co2 1 SAM  -0.9000 
  9 CB      10.3830    13.1460    21.1800 C.3   1 SAM  -0.1600 
 10 HB1      9.8702    13.1825    20.2189 H     1 SAM   0.0800 
 11 HB2      9.7185    12.7176    21.9303 H     1 SAM   0.0800 
 12 CG      11.6130    12.2440    21.0440 C.3   1 SAM  -0.1525 
 13 HG1     11.2938    11.2122    20.8971 H     1 SAM   0.0800 
 14 HG2     12.2167    12.3122    21.9490 H     1 SAM   0.0800 
 15 SD      12.5990    12.7860    19.6120 S.3   1 SAM   0.9775 
 16 CE      12.7680    11.2630    18.6880 C.3   1 SAM  -0.2325 
 17 HE1     11.8259    11.0336    18.1902 H     1 SAM   0.0800 
 18 HE2     13.0262    10.4518    19.3687 H     1 SAM   0.0800 
 19 HE3     13.5549    11.3759    17.9423 H     1 SAM   0.0800 
 20 C5'     14.2700    12.8980    20.3040 C.3   1 SAM  -0.1525 
 21 H5'1    14.9772    12.9329    19.4753 H     1 SAM   0.0800 
 22 H5'2    14.4504    12.0021    20.8980 H     1 SAM   0.0800 
 23 C4'     14.5190    14.0990    21.1820 C.3   1 SAM   0.2000 
 24 H4'     14.2281    14.9477    20.5630 H     1 SAM   0.0800 
 25 O4'     13.7660    13.9720    22.4050 O.3   1 SAM  -0.5600 
 26 C3'     15.9680    14.2830    21.6260 C.3   1 SAM   0.2000 
 27 H3'     16.5484    13.3845    21.8354 H     1 SAM   0.0800 
 28 O3'     16.7130    14.9060    20.5870 O.3   1 SAM  -0.6800 
 29 H3'     17.5908    15.0901    20.9294 H     1 SAM   0.4000 
 30 C2'     15.7530    15.1360    22.8730 C.3   1 SAM   0.2000 
 31 H2'     16.6396    15.2152    23.5022 H     1 SAM   0.0800 
 32 O2'     15.3940    16.4730    22.5520 O.3   1 SAM  -0.6800 
 33 H2'     16.1349    16.8689    22.0874 H     1 SAM   0.4000 
 34 C1'     14.5490    14.4310    23.4880 C.3   1 SAM   0.5691 
 35 H1'     14.0371    15.1424    24.1361 H     1 SAM   0.0800 
 36 OXT      9.3250    16.4650    21.9140 O.co2 1 SAM  -0.9000 
 37 N1      16.1780    12.8560    28.1160 N.2   1 SAM  -0.6610 
 38 C2      16.0390    14.0760    27.5880 C.2   1 SAM   0.6010 
 39 H2      16.2880    14.8971    28.2438 H     1 SAM   0.0600 
 40 N3      15.6370    14.4200    26.3680 N.2   1 SAM  -0.6610 
 41 C4      15.3170    13.3320    25.6460 C.2   1 SAM   0.5000 
 42 C5      15.4080    12.0150    26.0530 C.2   1 SAM   0.4500 
 43 C6      15.8780    11.7740    27.3550 C.2   1 SAM   0.6110 
 44 N6      15.9690    10.5650    27.8970 N.2   1 SAM  -0.2000 
 45 H62     16.3158    10.4590    28.8397 H     1 SAM   0.4000 
 46 H61     15.6915     9.7516    27.3665 H     1 SAM   0.4000 
 47 N7      15.0040    11.1630    25.0280 N.2   1 SAM  -0.6960 
 48 C8      14.7190    11.9670    24.0390 C.3   1 SAM   0.4551 
 49 H81     13.6809    11.8032    23.7499 H     1 SAM   0.0800 
 50 H82     15.3720    11.7263    23.2001 H     1 SAM   0.0800 
 51 N9      14.8790    13.2920    24.3460 N.pl3 1 SAM  -0.7882 
@<TRIPOS>BOND
  1   1   2  1   
  2   1   3  1   
  3   1   4  1   
  4   1   5  1   
  5   5   6  1   
  6   5   7  1   
  7   5   9  1   
  8   7   8  ar  
  9   7  36  ar  
 10   9  10  1   
 11   9  11  1   
 12   9  12  1   
 13  12  13  1   
 14  12  14  1   
 15  12  15  1   
 16  15  16  1   
 17  15  20  1   
 18  16  17  1   
 19  16  18  1   
 20  16  19  1   
 21  20  21  1   
 22  20  22  1   
 23  20  23  1   
 24  23  24  1   
 25  23  25  1   
 26  23  26  1   
 27  25  34  1   
 28  26  27  1   
 29  26  28  1   
 30  26  30  1   
 31  28  29  1   
 32  30  31  1   
 33  30  32  1   
 34  30  34  1   
 35  32  33  1   
 36  34  35  1   
 37  34  51  1   
 38  37  38  2   
 39  37  43  1   
 40  38  39  1   
 41  38  40  1   
 42  40  41  2   
 43  41  42  1   
 44  41  51  1   
 45  42  43  1   
 46  42  47  2   
 47  43  44  2   
 48  44  45  1   
 49  44  46  1   
 50  47  48  1   
 51  48  49  1   
 52  48  50  1   
 53  48  51  1   
@<TRIPOS>SUBSTRUCTURE
  1 SAM  25 GROUP 4 A **** 0

# MOE 2022.02 (io_trps.svl 2020.11)
