# created with PyMOL 2.4.0
@<TRIPOS>MOLECULE
temp
50 52 1                 
SMALL
USER_CHARGES
@<TRIPOS>ATOM
1	   N	10.858	14.654	23.076	N.4	1	SAM1	0.000	
2	  CA	10.737	14.573	21.599	C.3	1	SAM1	0.000	
3	   C	9.692	15.584	21.103	C.2	1	SAM1	0.000	
4	   O	9.365	15.527	19.903	O.co2	1	SAM1	0.000	
5	  CB	10.383	13.146	21.180	C.3	1	SAM1	0.000	
6	  CG	11.613	12.244	21.044	C.3	1	SAM1	0.000	
7	  SD	12.599	12.786	19.612	S.3	1	SAM1	0.000	
8	  CE	12.768	11.263	18.688	C.3	1	SAM1	0.000	
9	 C5'	14.270	12.898	20.304	C.3	1	SAM1	0.000	
10	 C4'	14.519	14.099	21.182	C.3	1	SAM1	0.000	
11	 O4'	13.766	13.972	22.405	O.3	1	SAM1	0.000	
12	 C3'	15.968	14.283	21.626	C.3	1	SAM1	0.000	
13	 O3'	16.713	14.906	20.587	O.3	1	SAM1	0.000	
14	 C2'	15.753	15.136	22.873	C.3	1	SAM1	0.000	
15	 O2'	15.394	16.473	22.552	O.3	1	SAM1	0.000	
16	 C1'	14.549	14.431	23.488	C.3	1	SAM1	0.000	
17	 OXT	9.325	16.465	21.914	O.co2	1	SAM1	0.000	
18	  N1	16.178	12.856	28.116	N.2	1	SAM1	0.000	
19	  C2	16.039	14.076	27.588	C.2	1	SAM1	0.000	
20	  N3	15.637	14.420	26.368	N.2	1	SAM1	0.000	
21	  C4	15.317	13.332	25.646	C.2	1	SAM1	0.000	
22	  C5	15.408	12.015	26.053	C.2	1	SAM1	0.000	
23	  C6	15.878	11.774	27.355	C.2	1	SAM1	0.000	
24	  N6	15.969	10.565	27.897	N.pl3	1	SAM1	0.000	
25	  N7	15.004	11.163	25.028	N.2	1	SAM1	0.000	
26	  C8	14.719	11.967	24.039	C.2	1	SAM1	0.000	
27	  N9	14.879	13.292	24.346	N.2	1	SAM1	0.000	
28	  HA	11.693	14.827	21.141	 H	1	SAM1	0.000	
29	 HB1	9.870	13.182	20.219	 H	1	SAM1	0.000	
30	 HB2	9.719	12.718	21.930	 H	1	SAM1	0.000	
31	 HG1	11.294	11.212	20.897	 H	1	SAM1	0.000	
32	 HG2	12.217	12.312	21.949	 H	1	SAM1	0.000	
33	 HE1	11.826	11.034	18.190	 H	1	SAM1	0.000	
34	 HE2	13.026	10.452	19.369	 H	1	SAM1	0.000	
35	 HE3	13.555	11.376	17.942	 H	1	SAM1	0.000	
36	  H1	9.972	14.418	23.500	 H	1	SAM1	0.000	
37	  H2	11.119	15.593	23.341	 H	1	SAM1	0.000	
38	  H2	16.288	14.897	28.244	 H	1	SAM1	0.000	
39	  H3	11.565	14.006	23.392	 H	1	SAM1	0.000	
40	  H8	14.389	11.620	23.071	 H	1	SAM1	0.000	
41	 H1'	14.037	15.142	24.136	 H	1	SAM1	0.000	
42	 H2'	16.640	15.215	23.502	 H	1	SAM1	0.000	
43	 H2'	16.135	16.869	22.087	 H	1	SAM1	0.000	
44	 H3'	16.548	13.384	21.835	 H	1	SAM1	0.000	
45	 H3'	17.591	15.090	20.929	 H	1	SAM1	0.000	
46	 H4'	14.228	14.948	20.563	 H	1	SAM1	0.000	
47	 H61	15.691	9.752	27.367	 H	1	SAM1	0.000	
48	 H62	16.316	10.459	28.840	 H	1	SAM1	0.000	
49	H5'1	14.977	12.933	19.475	 H	1	SAM1	0.000	
50	H5'2	14.450	12.002	20.898	 H	1	SAM1	0.000	
@<TRIPOS>BOND
1 1 2 1
2 1 36 1
3 1 37 1
4 1 39 1
5 2 3 1
6 2 5 1
7 2 28 1
8 3 4 ar
9 3 17 ar
10 5 6 1
11 5 29 1
12 5 30 1
13 6 7 1
14 6 31 1
15 6 32 1
16 7 8 1
17 7 9 1
18 8 33 1
19 8 34 1
20 8 35 1
21 9 10 1
22 9 49 1
23 9 50 1
24 10 11 1
25 10 12 1
26 10 46 1
27 11 16 1
28 12 13 1
29 12 14 1
30 12 44 1
31 13 45 1
32 14 15 1
33 14 16 1
34 14 42 1
35 15 43 1
36 16 27 1
37 16 41 1
38 18 19 ar
39 18 23 ar
40 19 20 ar
41 19 38 1
42 20 21 ar
43 21 22 ar
44 21 27 ar
45 22 23 ar
46 22 25 ar
47 23 24 1
48 24 47 1
49 24 48 1
50 25 26 ar
51 26 27 ar
52 26 40 1
@<TRIPOS>SUBSTRUCTURE
1	SAM1	1	GROUP	1 A	SAM
