# created with PyMOL 2.5.0
@<TRIPOS>MOLECULE
5ARG
35 37 1                 
SMALL
USER_CHARGES
@<TRIPOS>ATOM
1	CL10	-18.710	7.425	-14.818	Cl	1	H411432	0.000	
2	 CL7	-20.272	4.846	-14.242	Cl	1	H411432	0.000	
3	  C1	-13.795	4.216	-11.713	C.3	1	H411432	0.000	
4	  C2	-14.572	5.084	-12.681	C.3	1	H411432	0.000	
5	  C3	-15.996	5.044	-13.083	C.2	1	H411432	0.000	
6	  C4	-16.597	6.154	-13.670	C.2	1	H411432	0.000	
7	  C5	-17.901	6.084	-14.063	C.2	1	H411432	0.000	
8	  C6	-18.710	4.955	-13.740	C.2	1	H411432	0.000	
9	  C8	-18.103	3.878	-13.154	C.2	1	H411432	0.000	
10	  C9	-16.793	3.945	-12.820	C.2	1	H411432	0.000	
11	 N11	-13.836	6.110	-13.074	N.3	1	H411432	0.000	
12	 N12	-12.602	6.073	-12.550	N.3	1	H411432	0.000	
13	 C13	-12.451	4.909	-11.647	C.3	1	H411432	0.000	
14	 C14	-11.654	6.920	-13.001	C.3	1	H411432	0.000	
15	 N15	-12.108	7.763	-13.962	N.pl3	1	H411432	0.000	
16	 C16	-11.430	8.792	-14.408	C.2	1	H411432	0.000	
17	 C17	-11.376	9.915	-13.527	C.2	1	H411432	0.000	
18	 C18	-10.692	11.079	-13.931	C.2	1	H411432	0.000	
19	 C19	-10.106	11.177	-15.214	C.2	1	H411432	0.000	
20	 C20	-10.197	10.057	-16.073	C.2	1	H411432	0.000	
21	 C21	-10.842	8.885	-15.667	C.2	1	H411432	0.000	
22	 O22	-9.677	10.054	-17.307	O.3	1	H411432	0.000	
23	 C23	-8.600	10.979	-17.649	C.3	1	H411432	0.000	
24	 N26	-10.420	6.892	-12.531	N.3	1	H411432	0.000	
25	 C27	-9.305	7.543	-12.946	C.3	1	H411432	0.000	
26	 N28	-8.343	8.095	-13.294	N.3	1	H411432	0.000	
27	 N29	-13.604	2.807	-12.193	N.pl3	1	H411432	0.000	
28	 C30	-13.170	2.588	-13.457	C.2	1	H411432	0.000	
29	 C31	-12.935	1.066	-13.818	C.3	1	H411432	0.000	
30	 O32	-12.419	0.848	-15.152	O.3	1	H411432	0.000	
31	 O33	-13.043	3.510	-14.317	O.2	1	H411432	0.000	
32	 C34	-13.790	1.719	-11.141	C.3	1	H411432	0.000	
33	 C35	-12.630	1.704	-10.146	C.3	1	H411432	0.000	
34	 F24	-7.939	10.474	-18.704	 F	1	H411432	0.000	
35	 F25	-9.310	12.021	-18.152	 F	1	H411432	0.000	
@<TRIPOS>BOND
1 1 7 1
2 2 8 1
3 3 4 1
4 3 13 1
5 3 27 1
6 4 5 1
7 4 11 1
8 5 6 ar
9 5 10 ar
10 6 7 ar
11 7 8 ar
12 8 9 ar
13 9 10 ar
14 11 12 1
15 12 13 1
16 12 14 1
17 14 15 1
18 14 24 1
19 15 16 1
20 16 17 ar
21 16 21 ar
22 17 18 ar
23 18 19 ar
24 19 20 ar
25 20 21 ar
26 20 22 1
27 22 23 1
28 23 34 1
29 23 35 1
30 24 25 1
31 25 26 1
32 27 28 1
33 27 32 1
34 28 29 1
35 28 31 2
36 29 30 1
37 32 33 1
@<TRIPOS>SUBSTRUCTURE
1	H411432	1	GROUP	1 A	H41
