@<TRIPOS>MOLECULE
5ARG.A
64 66 1 0 0 
SMALL
USER_CHARGES


@<TRIPOS>ATOM
  1 CL10   -18.7100     7.4250   -14.8180 Cl    1 H  -0.1770 
  2 CL7    -20.2720     4.8460   -14.2420 Cl    1 H  -0.1770 
  3 C1     -13.7950     4.2160   -11.7130 C.3   1 H   0.2201 
  4 H1     -14.3173     4.1203   -10.7611 H     1 H   0.0800 
  5 C2     -14.5720     5.0840   -12.6810 C.3   1 H   0.3335 
  6 H2     -15.1103     4.2040   -13.0331 H     1 H   0.0800 
  7 C3     -15.9960     5.0440   -13.0830 C.ar  1 H  -0.1435 
  8 C4     -16.5970     6.1540   -13.6700 C.ar  1 H  -0.1500 
  9 H4     -16.0343     7.0646   -13.8132 H     1 H   0.1500 
 10 C5     -17.9010     6.0840   -14.0630 C.ar  1 H   0.1770 
 11 C6     -18.7100     4.9550   -13.7400 C.ar  1 H   0.1770 
 12 C8     -18.1030     3.8780   -13.1540 C.ar  1 H  -0.1500 
 13 H8     -18.6669     2.9778   -12.9587 H     1 H   0.1500 
 14 C9     -16.7930     3.9450   -12.8200 C.ar  1 H  -0.1500 
 15 H9     -16.3473     3.0964   -12.3225 H     1 H   0.1500 
 16 N11    -13.8360     6.1100   -13.0740 N.3   1 H  -0.6300 
 17 H11    -14.2879     6.9655   -12.7841 H     1 H   0.3600 
 18 N12    -12.6020     6.0730   -12.5500 N.3   1 H  -0.5400 
 19 C13    -12.4510     4.9090   -11.6470 C.3   1 H   0.1100 
 20 H131   -11.6572     4.2485   -11.9960 H     1 H   0.0800 
 21 H132   -12.2323     5.2338   -10.6298 H     1 H   0.0800 
 22 C14    -11.6540     6.9200   -13.0010 C.3   1 H   0.8291 
 23 H14    -11.9318     7.6424   -12.2335 H     1 H   0.0800 
 24 N15    -12.1080     7.7630   -13.9620 N.pl3 1 H  -0.8691 
 25 H15    -13.0211     7.5875   -14.3565 H     1 H   0.4000 
 26 C16    -11.4300     8.7920   -14.4080 C.ar  1 H   0.1000 
 27 C17    -11.3760     9.9150   -13.5270 C.ar  1 H  -0.1500 
 28 H17    -11.8550     9.8724   -12.5600 H     1 H   0.1500 
 29 C18    -10.6920    11.0790   -13.9310 C.ar  1 H  -0.1500 
 30 H18    -10.6140    11.9118   -13.2478 H     1 H   0.1500 
 31 C19    -10.1060    11.1770   -15.2140 C.ar  1 H  -0.1500 
 32 H19     -9.6040    12.0800   -15.5287 H     1 H   0.1500 
 33 C20    -10.1970    10.0570   -16.0730 C.ar  1 H   0.0825 
 34 C21    -10.8420     8.8850   -15.6670 C.ar  1 H  -0.1500 
 35 H21    -10.8849     8.0404   -16.3387 H     1 H   0.1500 
 36 O22     -9.6770    10.0540   -17.3070 O.3   1 H  -0.3625 
 37 C23     -8.6000    10.9790   -17.6490 C.3   1 H   0.8800 
 38 H23     -7.9157    11.1943   -16.8284 H     1 H   0.0800 
 39 N26    -10.4200     6.8920   -12.5310 N.3   1 H  -0.9000 
 40 H26    -10.1638     5.9160   -12.5754 H     1 H   0.3600 
 41 C27     -9.3050     7.5430   -12.9460 C.3   1 H   0.6130 
 42 H271    -9.7891     8.5007   -12.7546 H     1 H   0.0800 
 43 H272    -9.5031     7.2345   -13.9725 H     1 H   0.0800 
 44 N28     -8.3430     8.0950   -13.2940 N.4   1 H  -0.8530 
 45 H281    -7.8936     8.5231   -12.4972 H     1 H   0.4500 
 46 H282    -8.5884     8.8083   -13.9656 H     1 H   0.4500 
 47 H283    -7.7111     7.4332   -13.7216 H     1 H   0.4500 
 48 N29    -13.6040     2.8070   -12.1930 N.am  1 H  -0.6602 
 49 C30    -13.1700     2.5880   -13.4570 C.2   1 H   0.5690 
 50 C31    -12.9350     1.0660   -13.8180 C.3   1 H   0.1810 
 51 H311   -13.8868     0.5423   -13.7294 H     1 H   0.0800 
 52 H312   -12.2239     0.6507   -13.1039 H     1 H   0.0800 
 53 O32    -12.4190     0.8480   -15.1520 O.3   1 H  -0.6800 
 54 H32    -13.0522     1.2171   -15.7721 H     1 H   0.4000 
 55 O33    -13.0430     3.5100   -14.3170 O.2   1 H  -0.5700 
 56 C34    -13.7900     1.7190   -11.1410 C.3   1 H   0.1401 
 57 H341   -13.8441     0.7503   -11.6378 H     1 H   0.0800 
 58 H342   -14.7187     1.9026   -10.6008 H     1 H   0.0800 
 59 C35    -12.6300     1.7040   -10.1460 C.3   1 H  -0.2400 
 60 H351   -11.6968     1.5208   -10.6786 H     1 H   0.0800 
 61 H352   -12.7907     0.9140    -9.4124 H     1 H   0.0800 
 62 H353   -12.5751     2.6665    -9.6373 H     1 H   0.0800 
 63 F24     -7.9390    10.4740   -18.7040 F     1 H  -0.3400 
 64 F25     -9.3100    12.0210   -18.1520 F     1 H  -0.3400 
@<TRIPOS>BOND
  1   1  10  1   
  2   2  11  1   
  3   3   4  1   
  4   3   5  1   
  5   3  19  1   
  6   3  48  1   
  7   5   6  1   
  8   5   7  1   
  9   5  16  1   
 10   7   8  ar  
 11   7  14  ar  
 12   8   9  1   
 13   8  10  ar  
 14  10  11  ar  
 15  11  12  ar  
 16  12  13  1   
 17  12  14  ar  
 18  14  15  1   
 19  16  17  1   
 20  16  18  1   
 21  18  19  1   
 22  18  22  1   
 23  19  20  1   
 24  19  21  1   
 25  22  23  1   
 26  22  24  1   
 27  22  39  1   
 28  24  25  1   
 29  24  26  1   
 30  26  27  ar  
 31  26  34  ar  
 32  27  28  1   
 33  27  29  ar  
 34  29  30  1   
 35  29  31  ar  
 36  31  32  1   
 37  31  33  ar  
 38  33  34  ar  
 39  33  36  1   
 40  34  35  1   
 41  36  37  1   
 42  37  38  1   
 43  37  63  1   
 44  37  64  1   
 45  39  40  1   
 46  39  41  1   
 47  41  42  1   
 48  41  43  1   
 49  41  44  1   
 50  44  45  1   
 51  44  46  1   
 52  44  47  1   
 53  48  49  am  
 54  48  56  1   
 55  49  50  1   
 56  49  55  2   
 57  50  51  1   
 58  50  52  1   
 59  50  53  1   
 60  53  54  1   
 61  56  57  1   
 62  56  58  1   
 63  56  59  1   
 64  59  60  1   
 65  59  61  1   
 66  59  62  1   
@<TRIPOS>SUBSTRUCTURE
  1 H  16 GROUP 4 A **** 0

# MOE 2022.02 (io_trps.svl 2020.11)
