# created with PyMOL 2.4.0
@<TRIPOS>MOLECULE
temp
50 52 1                 
SMALL
USER_CHARGES
@<TRIPOS>ATOM
1	   N	-26.478	10.910	-11.879	N.4	1	SAM1	0.000	
2	  CA	-25.585	11.462	-12.900	C.3	1	SAM1	0.000	
3	   C	-26.260	12.342	-13.928	C.2	1	SAM1	0.000	
4	   O	-25.448	12.828	-14.750	O.co2	1	SAM1	0.000	
5	  CB	-24.923	10.306	-13.680	C.3	1	SAM1	0.000	
6	  CG	-23.823	9.647	-12.884	C.3	1	SAM1	0.000	
7	  SD	-22.380	10.466	-12.920	S.3	1	SAM1	0.000	
8	  CE	-21.183	9.492	-13.641	C.3	1	SAM1	0.000	
9	 C5'	-21.671	10.685	-11.470	C.3	1	SAM1	0.000	
10	 C4'	-22.770	11.488	-10.700	C.3	1	SAM1	0.000	
11	 O4'	-24.165	10.996	-10.591	O.3	1	SAM1	0.000	
12	 C3'	-22.258	11.672	-9.328	C.3	1	SAM1	0.000	
13	 O3'	-21.164	12.623	-9.269	O.3	1	SAM1	0.000	
14	 C2'	-23.478	12.052	-8.540	C.3	1	SAM1	0.000	
15	 O2'	-23.752	13.484	-8.647	O.3	1	SAM1	0.000	
16	 C1'	-24.571	11.248	-9.217	C.3	1	SAM1	0.000	
17	 OXT	-27.530	12.534	-13.997	O.co2	1	SAM1	0.000	
18	  N1	-26.372	9.088	-4.765	N.2	1	SAM1	0.000	
19	  C2	-26.438	10.363	-5.175	C.2	1	SAM1	0.000	
20	  N3	-25.931	10.779	-6.352	N.2	1	SAM1	0.000	
21	  C4	-25.315	9.922	-7.205	C.2	1	SAM1	0.000	
22	  C5	-25.222	8.499	-6.829	C.2	1	SAM1	0.000	
23	  C6	-25.802	8.118	-5.520	C.2	1	SAM1	0.000	
24	  N6	-25.753	6.828	-5.103	N.pl3	1	SAM1	0.000	
25	  N7	-24.589	7.852	-7.834	N.2	1	SAM1	0.000	
26	  C8	-24.293	8.784	-8.780	C.2	1	SAM1	0.000	
27	  N9	-24.723	10.014	-8.413	N.2	1	SAM1	0.000	
28	  HA	-24.875	12.078	-12.348	 H	1	SAM1	0.000	
29	 HB1	-24.501	10.701	-14.604	 H	1	SAM1	0.000	
30	 HB2	-25.682	9.560	-13.917	 H	1	SAM1	0.000	
31	 HG1	-23.660	8.648	-13.287	 H	1	SAM1	0.000	
32	 HG2	-24.149	9.572	-11.847	 H	1	SAM1	0.000	
33	 HE1	-21.488	9.232	-14.655	 H	1	SAM1	0.000	
34	 HE2	-21.054	8.581	-13.056	 H	1	SAM1	0.000	
35	 HE3	-20.241	10.039	-13.674	 H	1	SAM1	0.000	
36	  H1	-27.171	10.322	-12.320	 H	1	SAM1	0.000	
37	  H2	-26.938	11.665	-11.391	 H	1	SAM1	0.000	
38	  H2	-26.918	11.088	-4.534	 H	1	SAM1	0.000	
39	  H3	-25.941	10.363	-11.222	 H	1	SAM1	0.000	
40	  H8	-23.780	8.570	-9.706	 H	1	SAM1	0.000	
41	 H1'	-25.533	11.759	-9.265	 H	1	SAM1	0.000	
42	 H2'	-23.380	11.852	-7.473	 H	1	SAM1	0.000	
43	 H2'	-23.010	13.951	-8.257	 H	1	SAM1	0.000	
44	 H3'	-21.795	10.777	-8.912	 H	1	SAM1	0.000	
45	 H3'	-20.905	12.710	-8.349	 H	1	SAM1	0.000	
46	 H4'	-22.904	12.371	-11.325	 H	1	SAM1	0.000	
47	 H61	-25.320	6.125	-5.685	 H	1	SAM1	0.000	
48	 H62	-26.149	6.570	-4.210	 H	1	SAM1	0.000	
49	H5'1	-20.749	11.259	-11.561	 H	1	SAM1	0.000	
50	H5'2	-21.459	9.733	-10.983	 H	1	SAM1	0.000	
@<TRIPOS>BOND
1 1 2 1
2 1 36 1
3 1 37 1
4 1 39 1
5 2 3 1
6 2 5 1
7 2 28 1
8 3 4 ar
9 3 17 ar
10 5 6 1
11 5 29 1
12 5 30 1
13 6 7 1
14 6 31 1
15 6 32 1
16 7 8 1
17 7 9 1
18 8 33 1
19 8 34 1
20 8 35 1
21 9 10 1
22 9 49 1
23 9 50 1
24 10 11 1
25 10 12 1
26 10 46 1
27 11 16 1
28 12 13 1
29 12 14 1
30 12 44 1
31 13 45 1
32 14 15 1
33 14 16 1
34 14 42 1
35 15 43 1
36 16 27 1
37 16 41 1
38 18 19 ar
39 18 23 ar
40 19 20 ar
41 19 38 1
42 20 21 ar
43 21 22 ar
44 21 27 ar
45 22 23 ar
46 22 25 ar
47 23 24 1
48 24 47 1
49 24 48 1
50 25 26 ar
51 26 27 ar
52 26 40 1
@<TRIPOS>SUBSTRUCTURE
1	SAM1	1	GROUP	1 A	SAM
