# created with PyMOL 2.5.0
@<TRIPOS>MOLECULE
5ARG
27 29 1                 
SMALL
USER_CHARGES
@<TRIPOS>ATOM
1	   N	-26.478	10.910	-11.879	N.3	1	SAM1434	0.000	
2	  CA	-25.585	11.462	-12.900	C.3	1	SAM1434	0.000	
3	   C	-26.260	12.342	-13.928	C.2	1	SAM1434	0.000	
4	   O	-25.448	12.828	-14.750	O.co2	1	SAM1434	0.000	
5	  CB	-24.923	10.306	-13.680	C.3	1	SAM1434	0.000	
6	  CG	-23.823	9.647	-12.884	C.3	1	SAM1434	0.000	
7	  SD	-22.380	10.466	-12.920	S.3	1	SAM1434	0.000	
8	  CE	-21.183	9.492	-13.641	C.3	1	SAM1434	0.000	
9	 C5'	-21.671	10.685	-11.470	C.3	1	SAM1434	0.000	
10	 C4'	-22.770	11.488	-10.700	C.3	1	SAM1434	0.000	
11	 O4'	-24.165	10.996	-10.591	O.3	1	SAM1434	0.000	
12	 C3'	-22.258	11.672	-9.328	C.3	1	SAM1434	0.000	
13	 O3'	-21.164	12.623	-9.269	O.3	1	SAM1434	0.000	
14	 C2'	-23.478	12.052	-8.540	C.3	1	SAM1434	0.000	
15	 O2'	-23.752	13.484	-8.647	O.3	1	SAM1434	0.000	
16	 C1'	-24.571	11.248	-9.217	C.3	1	SAM1434	0.000	
17	 OXT	-27.530	12.534	-13.997	O.co2	1	SAM1434	0.000	
18	  N1	-26.372	9.088	-4.765	N.2	1	SAM1434	0.000	
19	  C2	-26.438	10.363	-5.175	C.2	1	SAM1434	0.000	
20	  N3	-25.931	10.779	-6.352	N.2	1	SAM1434	0.000	
21	  C4	-25.315	9.922	-7.205	C.2	1	SAM1434	0.000	
22	  C5	-25.222	8.499	-6.829	C.2	1	SAM1434	0.000	
23	  C6	-25.802	8.118	-5.520	C.2	1	SAM1434	0.000	
24	  N6	-25.753	6.828	-5.103	N.pl3	1	SAM1434	0.000	
25	  N7	-24.589	7.852	-7.834	N.2	1	SAM1434	0.000	
26	  C8	-24.293	8.784	-8.780	C.2	1	SAM1434	0.000	
27	  N9	-24.723	10.014	-8.413	N.2	1	SAM1434	0.000	
@<TRIPOS>BOND
1 1 2 1
2 2 3 1
3 2 5 1
4 3 4 ar
5 3 17 ar
6 5 6 1
7 6 7 1
8 7 8 1
9 7 9 1
10 9 10 1
11 10 11 1
12 10 12 1
13 11 16 1
14 12 13 1
15 12 14 1
16 14 15 1
17 14 16 1
18 16 27 1
19 18 19 ar
20 18 23 ar
21 19 20 ar
22 20 21 ar
23 21 22 ar
24 21 27 ar
25 22 23 ar
26 22 25 ar
27 23 24 1
28 25 26 ar
29 26 27 ar
@<TRIPOS>SUBSTRUCTURE
1	SAM1434	1	GROUP	1 A	SAM
