@<TRIPOS>MOLECULE
5ARG.A
51 53 1 0 0 
SMALL
USER_CHARGES


@<TRIPOS>ATOM
  1 N      -26.4780    10.9100   -11.8790 N.4   1 SAM  -0.8530 
  2 H1     -27.1708    10.3220   -12.3200 H     1 SAM   0.4500 
  3 H2     -26.9385    11.6648   -11.3908 H     1 SAM   0.4500 
  4 H3     -25.9406    10.3625   -11.2221 H     1 SAM   0.4500 
  5 CA     -25.5850    11.4620   -12.9000 C.3   1 SAM   0.3170 
  6 HA     -24.8749    12.0776   -12.3478 H     1 SAM   0.0800 
  7 C      -26.2600    12.3420   -13.9280 C.2   1 SAM   0.9060 
  8 O      -25.4480    12.8280   -14.7500 O.co2 1 SAM  -0.9000 
  9 CB     -24.9230    10.3060   -13.6800 C.3   1 SAM  -0.1600 
 10 HB1    -24.5011    10.7007   -14.6043 H     1 SAM   0.0800 
 11 HB2    -25.6821     9.5603   -13.9165 H     1 SAM   0.0800 
 12 CG     -23.8230     9.6470   -12.8840 C.3   1 SAM  -0.1525 
 13 HG1    -23.6599     8.6475   -13.2870 H     1 SAM   0.0800 
 14 HG2    -24.1486     9.5718   -11.8465 H     1 SAM   0.0800 
 15 SD     -22.3800    10.4660   -12.9200 S.3   1 SAM   0.9775 
 16 CE     -21.1830     9.4920   -13.6410 C.3   1 SAM  -0.2325 
 17 HE1    -21.4879     9.2324   -14.6548 H     1 SAM   0.0800 
 18 HE2    -21.0544     8.5814   -13.0558 H     1 SAM   0.0800 
 19 HE3    -20.2407    10.0389   -13.6738 H     1 SAM   0.0800 
 20 C5'    -21.6710    10.6850   -11.4700 C.3   1 SAM  -0.1525 
 21 H5'1   -20.7491    11.2594   -11.5608 H     1 SAM   0.0800 
 22 H5'2   -21.4595     9.7331   -10.9830 H     1 SAM   0.0800 
 23 C4'    -22.7700    11.4880   -10.7000 C.3   1 SAM   0.2000 
 24 H4'    -22.9037    12.3706   -11.3255 H     1 SAM   0.0800 
 25 O4'    -24.1650    10.9960   -10.5910 O.3   1 SAM  -0.5600 
 26 C3'    -22.2580    11.6720    -9.3280 C.3   1 SAM   0.2000 
 27 H3'    -21.7951    10.7770    -8.9124 H     1 SAM   0.0800 
 28 O3'    -21.1640    12.6230    -9.2690 O.3   1 SAM  -0.6800 
 29 H3'    -20.9046    12.7103    -8.3488 H     1 SAM   0.4000 
 30 C2'    -23.4780    12.0520    -8.5400 C.3   1 SAM   0.2000 
 31 H2'    -23.3804    11.8516    -7.4730 H     1 SAM   0.0800 
 32 O2'    -23.7520    13.4840    -8.6470 O.3   1 SAM  -0.6800 
 33 H2'    -23.0100    13.9515    -8.2565 H     1 SAM   0.4000 
 34 C1'    -24.5710    11.2480    -9.2170 C.3   1 SAM   0.5691 
 35 H1'    -25.5327    11.7587    -9.2652 H     1 SAM   0.0800 
 36 OXT    -27.5300    12.5340   -13.9970 O.co2 1 SAM  -0.9000 
 37 N1     -26.3720     9.0880    -4.7650 N.2   1 SAM  -0.6610 
 38 C2     -26.4380    10.3630    -5.1750 C.2   1 SAM   0.6010 
 39 H2     -26.9182    11.0877    -4.5342 H     1 SAM   0.0600 
 40 N3     -25.9310    10.7790    -6.3520 N.2   1 SAM  -0.6610 
 41 C4     -25.3150     9.9220    -7.2050 C.2   1 SAM   0.5000 
 42 C5     -25.2220     8.4990    -6.8290 C.2   1 SAM   0.4500 
 43 C6     -25.8020     8.1180    -5.5200 C.2   1 SAM   0.6110 
 44 N6     -25.7530     6.8280    -5.1030 N.2   1 SAM  -0.2000 
 45 H62    -26.1490     6.5705    -4.2103 H     1 SAM   0.4000 
 46 H61    -25.3205     6.1251    -5.6853 H     1 SAM   0.4000 
 47 N7     -24.5890     7.8520    -7.8340 N.2   1 SAM  -0.6960 
 48 C8     -24.2930     8.7840    -8.7800 C.3   1 SAM   0.4551 
 49 H81    -24.7756     8.5044    -9.7165 H     1 SAM   0.0800 
 50 H82    -23.2128     8.8139    -8.9227 H     1 SAM   0.0800 
 51 N9     -24.7230    10.0140    -8.4130 N.pl3 1 SAM  -0.7882 
@<TRIPOS>BOND
  1   1   2  1   
  2   1   3  1   
  3   1   4  1   
  4   1   5  1   
  5   5   6  1   
  6   5   7  1   
  7   5   9  1   
  8   7   8  ar  
  9   7  36  ar  
 10   9  10  1   
 11   9  11  1   
 12   9  12  1   
 13  12  13  1   
 14  12  14  1   
 15  12  15  1   
 16  15  16  1   
 17  15  20  1   
 18  16  17  1   
 19  16  18  1   
 20  16  19  1   
 21  20  21  1   
 22  20  22  1   
 23  20  23  1   
 24  23  24  1   
 25  23  25  1   
 26  23  26  1   
 27  25  34  1   
 28  26  27  1   
 29  26  28  1   
 30  26  30  1   
 31  28  29  1   
 32  30  31  1   
 33  30  32  1   
 34  30  34  1   
 35  32  33  1   
 36  34  35  1   
 37  34  51  1   
 38  37  38  2   
 39  37  43  1   
 40  38  39  1   
 41  38  40  1   
 42  40  41  2   
 43  41  42  1   
 44  41  51  1   
 45  42  43  1   
 46  42  47  2   
 47  43  44  2   
 48  44  45  1   
 49  44  46  1   
 50  47  48  1   
 51  48  49  1   
 52  48  50  1   
 53  48  51  1   
@<TRIPOS>SUBSTRUCTURE
  1 SAM  34 GROUP 4 A **** 0

# MOE 2022.02 (io_trps.svl 2020.11)
