@<TRIPOS>MOLECULE
5V37.A
60 64 1 0 0 
SMALL
USER_CHARGES


@<TRIPOS>ATOM
  1 N01     24.9840    -4.4020    14.5520 N.4   1 Q8WD  -0.8530 
  2 H011    24.8202    -4.2552    13.5662 H     1 Q8WD   0.4500 
  3 H012    25.0838    -5.3906    14.7332 H     1 Q8WD   0.4500 
  4 H013    25.8288    -3.9222    14.8280 H     1 Q8WD   0.4500 
  5 C04     23.8540    -3.8780    15.3170 C.3   1 Q8WD   0.4230 
  6 H04     24.0734    -4.0573    16.3695 H     1 Q8WD   0.0800 
  7 C06     23.6770    -2.3620    15.1260 C.3   1 Q8WD  -0.1600 
  8 H061    23.4998    -2.1538    14.0708 H     1 Q8WD   0.0800 
  9 H062    24.5853    -1.8535    15.4491 H     1 Q8WD   0.0800 
 10 C09     22.4930    -1.8410    15.9450 C.3   1 Q8WD  -0.1600 
 11 H091    22.3513    -0.7840    15.7198 H     1 Q8WD   0.0800 
 12 H092    22.7224    -1.9593    17.0040 H     1 Q8WD   0.0800 
 13 C12     21.1920    -2.5850    15.6400 C.3   1 Q8WD   0.0252 
 14 H12     20.9408    -2.3155    14.6141 H     1 Q8WD   0.0800 
 15 C14     21.3790    -4.1070    15.7620 C.3   1 Q8WD  -0.1600 
 16 H141    20.4733    -4.6022    15.4120 H     1 Q8WD   0.0800 
 17 H142    21.5489    -4.3581    16.8090 H     1 Q8WD   0.0800 
 18 C17     22.5620    -4.6040    14.9380 C.3   1 Q8WD  -0.1600 
 19 H171    22.6916    -5.6721    15.1128 H     1 Q8WD   0.0800 
 20 H172    22.3554    -4.4312    13.8818 H     1 Q8WD   0.0800 
 21 S20     19.8270    -2.0910    16.6990 S.o2  1 Q8WD   1.3328 
 22 O21     20.3170    -2.1990    18.0480 O.2   1 Q8WD  -0.6500 
 23 O22     18.6500    -2.8380    16.3090 O.2   1 Q8WD  -0.6500 
 24 N23     19.5560    -0.4900    16.3720 N.am  1 Q8WD  -0.8494 
 25 C24     18.3210    -0.0480    15.7030 C.3   1 Q8WD   0.2757 
 26 H24     17.8006    -0.7646    15.0675 H     1 Q8WD   0.0800 
 27 C26     17.4590     0.3490    16.9120 C.3   1 Q8WD  -0.1600 
 28 H261    16.8317    -0.4833    17.2310 H     1 Q8WD   0.0800 
 29 H262    16.8307     1.2076    16.6750 H     1 Q8WD   0.0800 
 30 C29     18.4880     0.7070    17.9990 C.3   1 Q8WD  -0.1600 
 31 H291    18.3932     0.0278    18.8462 H     1 Q8WD   0.0800 
 32 H292    18.3383     1.7324    18.3369 H     1 Q8WD   0.0800 
 33 C32     19.8720     0.5580    17.3510 C.3   1 Q8WD   0.2757 
 34 H32     20.6402     0.3914    18.1061 H     1 Q8WD   0.0800 
 35 C34     20.3980     1.7670    16.5540 C.3   1 Q8WD  -0.1600 
 36 H341    21.3153     1.4736    16.0435 H     1 Q8WD   0.0800 
 37 H342    20.6136     2.5758    17.2522 H     1 Q8WD   0.0800 
 38 C37     19.3950     2.2800    15.5040 C.3   1 Q8WD   0.2201 
 39 H37     19.9725     2.8459    14.7731 H     1 Q8WD   0.0800 
 40 C39     18.6930     1.1170    14.7710 C.3   1 Q8WD  -0.1600 
 41 H391    17.7812     1.4974    14.3106 H     1 Q8WD   0.0800 
 42 H392    19.3617     0.7414    13.9965 H     1 Q8WD   0.0800 
 43 N42     18.4000     3.1810    16.0950 N.am  1 Q8WD  -0.7301 
 44 H42     18.3498     3.1482    17.1032 H     1 Q8WD   0.3700 
 45 C44     17.5210     4.0660    15.5050 C.2   1 Q8WD   0.7160 
 46 O45     17.5470     4.1380    14.2810 O.2   1 Q8WD  -0.5700 
 47 C46     16.5770     4.8530    16.2920 C.2   1 Q8WD   0.2028 
 48 N47     15.9060     4.2730    17.3010 N.2   1 Q8WD  -0.4097 
 49 O48     15.0800     5.2380    17.8520 O.3   1 Q8WD  -0.0191 
 50 C49     15.2530     6.3790    17.1580 C.2   1 Q8WD   0.0550 
 51 C50     16.1740     6.2050    16.1710 C.2   1 Q8WD  -0.1500 
 52 H50     16.5203     6.9356    15.4549 H     1 Q8WD   0.1500 
 53 C52     14.5240     7.6240    17.4770 C.3   1 Q8WD  -0.0150 
 54 H52     14.0555     7.1481    18.3385 H     1 Q8WD   0.1000 
 55 C54     14.0350     8.5130    16.3670 C.3   1 Q8WD  -0.2000 
 56 H541    13.0765     9.0237    16.4602 H     1 Q8WD   0.1000 
 57 H542    14.1933     8.2243    15.3279 H     1 Q8WD   0.1000 
 58 C57     15.1960     8.9410    17.2100 C.3   1 Q8WD  -0.2000 
 59 H571    16.1990     8.9640    16.7840 H     1 Q8WD   0.1000 
 60 H572    15.0822     9.7634    17.9162 H     1 Q8WD   0.1000 
@<TRIPOS>BOND
  1   1   2  1   
  2   1   3  1   
  3   1   4  1   
  4   1   5  1   
  5   5   6  1   
  6   5   7  1   
  7   5  18  1   
  8   7   8  1   
  9   7   9  1   
 10   7  10  1   
 11  10  11  1   
 12  10  12  1   
 13  10  13  1   
 14  13  14  1   
 15  13  15  1   
 16  13  21  1   
 17  15  16  1   
 18  15  17  1   
 19  15  18  1   
 20  18  19  1   
 21  18  20  1   
 22  21  22  2   
 23  21  23  2   
 24  21  24  am  
 25  24  25  1   
 26  24  33  1   
 27  25  26  1   
 28  25  27  1   
 29  25  40  1   
 30  27  28  1   
 31  27  29  1   
 32  27  30  1   
 33  30  31  1   
 34  30  32  1   
 35  30  33  1   
 36  33  34  1   
 37  33  35  1   
 38  35  36  1   
 39  35  37  1   
 40  35  38  1   
 41  38  39  1   
 42  38  40  1   
 43  38  43  1   
 44  40  41  1   
 45  40  42  1   
 46  43  44  1   
 47  43  45  am  
 48  45  46  2   
 49  45  47  1   
 50  47  48  2   
 51  47  51  1   
 52  48  49  1   
 53  49  50  1   
 54  50  51  2   
 55  50  53  1   
 56  51  52  1   
 57  53  54  1   
 58  53  55  1   
 59  53  58  1   
 60  55  56  1   
 61  55  57  1   
 62  55  58  1   
 63  58  59  1   
 64  58  60  1   
@<TRIPOS>SUBSTRUCTURE
  1 Q8WD  38 GROUP 4 A **** 0

# MOE 2022.02 (io_trps.svl 2020.11)
