# created with PyMOL 2.5.0
@<TRIPOS>MOLECULE
5V37
29 33 1                 
SMALL
USER_CHARGES
@<TRIPOS>ATOM
1	 N01	24.984	-4.402	14.552	N.3	1	8WD505	0.000	
2	 C04	23.854	-3.878	15.317	C.3	1	8WD505	0.000	
3	 C06	23.677	-2.362	15.126	C.3	1	8WD505	0.000	
4	 C09	22.493	-1.841	15.945	C.3	1	8WD505	0.000	
5	 C12	21.192	-2.585	15.640	C.3	1	8WD505	0.000	
6	 C14	21.379	-4.107	15.762	C.3	1	8WD505	0.000	
7	 C17	22.562	-4.604	14.938	C.3	1	8WD505	0.000	
8	 S20	19.827	-2.091	16.699	S.o2	1	8WD505	0.000	
9	 O21	20.317	-2.199	18.048	O.2	1	8WD505	0.000	
10	 O22	18.650	-2.838	16.309	O.2	1	8WD505	0.000	
11	 N23	19.556	-0.490	16.372	N.3	1	8WD505	0.000	
12	 C24	18.321	-0.048	15.703	C.3	1	8WD505	0.000	
13	 C26	17.459	0.349	16.912	C.3	1	8WD505	0.000	
14	 C29	18.488	0.707	17.999	C.3	1	8WD505	0.000	
15	 C32	19.872	0.558	17.351	C.3	1	8WD505	0.000	
16	 C34	20.398	1.767	16.554	C.3	1	8WD505	0.000	
17	 C37	19.395	2.280	15.504	C.3	1	8WD505	0.000	
18	 C39	18.693	1.117	14.771	C.3	1	8WD505	0.000	
19	 N42	18.400	3.181	16.095	N.pl3	1	8WD505	0.000	
20	 C44	17.521	4.066	15.505	C.2	1	8WD505	0.000	
21	 O45	17.547	4.138	14.281	O.2	1	8WD505	0.000	
22	 C46	16.577	4.853	16.292	C.2	1	8WD505	0.000	
23	 N47	15.906	4.273	17.301	N.2	1	8WD505	0.000	
24	 O48	15.080	5.238	17.852	O.2	1	8WD505	0.000	
25	 C49	15.253	6.379	17.158	C.2	1	8WD505	0.000	
26	 C50	16.174	6.205	16.171	C.2	1	8WD505	0.000	
27	 C52	14.524	7.624	17.477	C.3	1	8WD505	0.000	
28	 C54	14.035	8.513	16.367	C.3	1	8WD505	0.000	
29	 C57	15.196	8.941	17.210	C.3	1	8WD505	0.000	
@<TRIPOS>BOND
1 1 2 1
2 2 3 1
3 2 7 1
4 3 4 1
5 4 5 1
6 5 6 1
7 5 8 1
8 6 7 1
9 8 9 2
10 8 10 2
11 8 11 1
12 11 12 1
13 11 15 1
14 12 13 1
15 12 18 1
16 13 14 1
17 14 15 1
18 15 16 1
19 16 17 1
20 17 18 1
21 17 19 1
22 19 20 1
23 20 21 2
24 20 22 1
25 22 23 ar
26 22 26 ar
27 23 24 ar
28 24 25 ar
29 25 26 ar
30 25 27 1
31 27 28 1
32 27 29 1
33 28 29 1
@<TRIPOS>SUBSTRUCTURE
1	8WD505	1	GROUP	1 A	8WD
