# created with PyMOL 2.5.0
@<TRIPOS>MOLECULE
5V37
27 29 1                 
SMALL
USER_CHARGES
@<TRIPOS>ATOM
1	   N	10.699	14.694	23.040	N.3	1	SAM504	0.000	
2	  CA	10.598	14.657	21.585	C.3	1	SAM504	0.000	
3	   C	9.572	15.645	21.086	C.2	1	SAM504	0.000	
4	   O	9.219	15.607	19.884	O.co2	1	SAM504	0.000	
5	  CB	10.261	13.237	21.104	C.3	1	SAM504	0.000	
6	  CG	11.485	12.332	20.906	C.3	1	SAM504	0.000	
7	  SD	12.462	12.719	19.606	S.3	1	SAM504	0.000	
8	  CE	12.614	11.398	18.595	C.3	1	SAM504	0.000	
9	 C5'	14.039	12.996	20.056	C.3	1	SAM504	0.000	
10	 C4'	14.288	14.175	21.003	C.3	1	SAM504	0.000	
11	 O4'	13.602	14.053	22.252	O.3	1	SAM504	0.000	
12	 C3'	15.757	14.326	21.382	C.3	1	SAM504	0.000	
13	 O3'	16.530	14.973	20.369	O.3	1	SAM504	0.000	
14	 C2'	15.663	15.106	22.677	C.3	1	SAM504	0.000	
15	 O2'	15.392	16.493	22.429	O.3	1	SAM504	0.000	
16	 C1'	14.443	14.484	23.323	C.3	1	SAM504	0.000	
17	 OXT	9.108	16.486	21.885	O.co2	1	SAM504	0.000	
18	  N1	16.104	12.966	28.030	N.2	1	SAM504	0.000	
19	  C2	15.964	14.211	27.504	C.2	1	SAM504	0.000	
20	  N3	15.510	14.440	26.255	N.2	1	SAM504	0.000	
21	  C4	15.187	13.411	25.434	C.2	1	SAM504	0.000	
22	  C5	15.321	12.029	25.926	C.2	1	SAM504	0.000	
23	  C6	15.807	11.853	27.312	C.2	1	SAM504	0.000	
24	  N6	15.965	10.613	27.853	N.pl3	1	SAM504	0.000	
25	  N7	14.925	11.231	24.919	N.2	1	SAM504	0.000	
26	  C8	14.585	12.025	23.873	C.2	1	SAM504	0.000	
27	  N9	14.747	13.327	24.190	N.2	1	SAM504	0.000	
@<TRIPOS>BOND
1 1 2 1
2 2 3 1
3 2 5 1
4 3 4 ar
5 3 17 ar
6 5 6 1
7 6 7 1
8 7 8 1
9 7 9 1
10 9 10 1
11 10 11 1
12 10 12 1
13 11 16 1
14 12 13 1
15 12 14 1
16 14 15 1
17 14 16 1
18 16 27 1
19 18 19 ar
20 18 23 ar
21 19 20 ar
22 20 21 ar
23 21 22 ar
24 21 27 ar
25 22 23 ar
26 22 25 ar
27 23 24 1
28 25 26 ar
29 26 27 ar
@<TRIPOS>SUBSTRUCTURE
1	SAM504	1	GROUP	1 A	SAM
