@<TRIPOS>MOLECULE
5V37.A
51 53 1 0 0 
SMALL
USER_CHARGES


@<TRIPOS>ATOM
  1 N       10.6990    14.6940    23.0400 N.4   1 SAM  -0.8530 
  2 H1       9.8117    14.4331    23.4458 H     1 SAM   0.4500 
  3 H2      10.9434    15.6279    23.3369 H     1 SAM   0.4500 
  4 H3      11.4118    14.0465    23.3446 H     1 SAM   0.4500 
  5 CA      10.5980    14.6570    21.5850 C.3   1 SAM   0.3170 
  6 HA      11.5659    14.9417    21.1725 H     1 SAM   0.0800 
  7 C        9.5720    15.6450    21.0860 C.2   1 SAM   0.9060 
  8 O        9.2190    15.6070    19.8840 O.co2 1 SAM  -0.9000 
  9 CB      10.2610    13.2370    21.1040 C.3   1 SAM  -0.1600 
 10 HB1      9.7356    13.3143    20.1521 H     1 SAM   0.0800 
 11 HB2      9.6081    12.7720    21.8426 H     1 SAM   0.0800 
 12 CG      11.4850    12.3320    20.9060 C.3   1 SAM  -0.1525 
 13 HG1     11.1291    11.3112    20.7667 H     1 SAM   0.0800 
 14 HG2     12.0918    12.3850    21.8099 H     1 SAM   0.0800 
 15 SD      12.4620    12.7190    19.6060 S.3   1 SAM   0.9775 
 16 CE      12.6140    11.3980    18.5950 C.3   1 SAM  -0.2325 
 17 HE1     11.6306    11.1095    18.2238 H     1 SAM   0.0800 
 18 HE2     13.0523    10.5665    19.1470 H     1 SAM   0.0800 
 19 HE3     13.2583    11.6559    17.7545 H     1 SAM   0.0800 
 20 C5'     14.0390    12.9960    20.0560 C.3   1 SAM  -0.1525 
 21 H5'1    14.6150    13.1744    19.1480 H     1 SAM   0.0800 
 22 H5'2    14.4053    12.0947    20.5474 H     1 SAM   0.0800 
 23 C4'     14.2880    14.1750    21.0030 C.3   1 SAM   0.2000 
 24 H4'     13.9244    15.0298    20.4328 H     1 SAM   0.0800 
 25 O4'     13.6020    14.0530    22.2520 O.3   1 SAM  -0.5600 
 26 C3'     15.7570    14.3260    21.3820 C.3   1 SAM   0.2000 
 27 H3'     16.2853    13.3792    21.4937 H     1 SAM   0.0800 
 28 O3'     16.5300    14.9730    20.3690 O.3   1 SAM  -0.6800 
 29 H3'     17.4259    15.0645    20.7016 H     1 SAM   0.4000 
 30 C2'     15.6630    15.1060    22.6770 C.3   1 SAM   0.2000 
 31 H2'     16.5785    15.0658    23.2672 H     1 SAM   0.0800 
 32 O2'     15.3920    16.4930    22.4290 O.3   1 SAM  -0.6800 
 33 H2'     16.1403    16.8534    21.9476 H     1 SAM   0.4000 
 34 C1'     14.4430    14.4840    23.3230 C.3   1 SAM   0.5691 
 35 H1'     13.9778    15.2259    23.9720 H     1 SAM   0.0800 
 36 OXT      9.1080    16.4860    21.8850 O.co2 1 SAM  -0.9000 
 37 N1      16.1040    12.9660    28.0300 N.2   1 SAM  -0.6610 
 38 C2      15.9640    14.2110    27.5040 C.2   1 SAM   0.6010 
 39 H2      16.2296    15.0597    28.1169 H     1 SAM   0.0600 
 40 N3      15.5100    14.4400    26.2550 N.2   1 SAM  -0.6610 
 41 C4      15.1870    13.4110    25.4340 C.2   1 SAM   0.5000 
 42 C5      15.3210    12.0290    25.9260 C.2   1 SAM   0.4500 
 43 C6      15.8070    11.8530    27.3120 C.2   1 SAM   0.6110 
 44 N6      15.9650    10.6130    27.8530 N.2   1 SAM  -0.2000 
 45 H62     16.2981    10.5145    28.8014 H     1 SAM   0.4000 
 46 H61     15.7490     9.7920    27.3058 H     1 SAM   0.4000 
 47 N7      14.9250    11.2310    24.9190 N.2   1 SAM  -0.6960 
 48 C8      14.5850    12.0250    23.8730 C.3   1 SAM   0.4551 
 49 H81     13.5415    11.8471    23.6131 H     1 SAM   0.0800 
 50 H82     15.2183    11.7831    23.0195 H     1 SAM   0.0800 
 51 N9      14.7470    13.3270    24.1900 N.pl3 1 SAM  -0.7882 
@<TRIPOS>BOND
  1   1   2  1   
  2   1   3  1   
  3   1   4  1   
  4   1   5  1   
  5   5   6  1   
  6   5   7  1   
  7   5   9  1   
  8   7   8  ar  
  9   7  36  ar  
 10   9  10  1   
 11   9  11  1   
 12   9  12  1   
 13  12  13  1   
 14  12  14  1   
 15  12  15  1   
 16  15  16  1   
 17  15  20  1   
 18  16  17  1   
 19  16  18  1   
 20  16  19  1   
 21  20  21  1   
 22  20  22  1   
 23  20  23  1   
 24  23  24  1   
 25  23  25  1   
 26  23  26  1   
 27  25  34  1   
 28  26  27  1   
 29  26  28  1   
 30  26  30  1   
 31  28  29  1   
 32  30  31  1   
 33  30  32  1   
 34  30  34  1   
 35  32  33  1   
 36  34  35  1   
 37  34  51  1   
 38  37  38  2   
 39  37  43  1   
 40  38  39  1   
 41  38  40  1   
 42  40  41  2   
 43  41  42  1   
 44  41  51  1   
 45  42  43  1   
 46  42  47  2   
 47  43  44  2   
 48  44  45  1   
 49  44  46  1   
 50  47  48  1   
 51  48  49  1   
 52  48  50  1   
 53  48  51  1   
@<TRIPOS>SUBSTRUCTURE
  1 SAM  25 GROUP 4 A **** 0

# MOE 2022.02 (io_trps.svl 2020.11)
