# created with PyMOL 2.4.0
@<TRIPOS>MOLECULE
temp
50 52 1                 
SMALL
USER_CHARGES
@<TRIPOS>ATOM
1	   N	10.699	14.694	23.040	N.4	1	SAM1	0.000	
2	  CA	10.598	14.657	21.585	C.3	1	SAM1	0.000	
3	   C	9.572	15.645	21.086	C.2	1	SAM1	0.000	
4	   O	9.219	15.607	19.884	O.co2	1	SAM1	0.000	
5	  CB	10.261	13.237	21.104	C.3	1	SAM1	0.000	
6	  CG	11.485	12.332	20.906	C.3	1	SAM1	0.000	
7	  SD	12.462	12.719	19.606	S.3	1	SAM1	0.000	
8	  CE	12.614	11.398	18.595	C.3	1	SAM1	0.000	
9	 C5'	14.039	12.996	20.056	C.3	1	SAM1	0.000	
10	 C4'	14.288	14.175	21.003	C.3	1	SAM1	0.000	
11	 O4'	13.602	14.053	22.252	O.3	1	SAM1	0.000	
12	 C3'	15.757	14.326	21.382	C.3	1	SAM1	0.000	
13	 O3'	16.530	14.973	20.369	O.3	1	SAM1	0.000	
14	 C2'	15.663	15.106	22.677	C.3	1	SAM1	0.000	
15	 O2'	15.392	16.493	22.429	O.3	1	SAM1	0.000	
16	 C1'	14.443	14.484	23.323	C.3	1	SAM1	0.000	
17	 OXT	9.108	16.486	21.885	O.co2	1	SAM1	0.000	
18	  N1	16.104	12.966	28.030	N.2	1	SAM1	0.000	
19	  C2	15.964	14.211	27.504	C.2	1	SAM1	0.000	
20	  N3	15.510	14.440	26.255	N.2	1	SAM1	0.000	
21	  C4	15.187	13.411	25.434	C.2	1	SAM1	0.000	
22	  C5	15.321	12.029	25.926	C.2	1	SAM1	0.000	
23	  C6	15.807	11.853	27.312	C.2	1	SAM1	0.000	
24	  N6	15.965	10.613	27.853	N.pl3	1	SAM1	0.000	
25	  N7	14.925	11.231	24.919	N.2	1	SAM1	0.000	
26	  C8	14.585	12.025	23.873	C.2	1	SAM1	0.000	
27	  N9	14.747	13.327	24.190	N.2	1	SAM1	0.000	
28	  HA	11.566	14.942	21.173	 H	1	SAM1	0.000	
29	 HB1	9.736	13.314	20.152	 H	1	SAM1	0.000	
30	 HB2	9.608	12.772	21.843	 H	1	SAM1	0.000	
31	 HG1	11.129	11.311	20.767	 H	1	SAM1	0.000	
32	 HG2	12.092	12.385	21.810	 H	1	SAM1	0.000	
33	 HE1	11.631	11.109	18.224	 H	1	SAM1	0.000	
34	 HE2	13.052	10.566	19.147	 H	1	SAM1	0.000	
35	 HE3	13.258	11.656	17.754	 H	1	SAM1	0.000	
36	  H1	9.812	14.433	23.446	 H	1	SAM1	0.000	
37	  H2	10.943	15.628	23.337	 H	1	SAM1	0.000	
38	  H2	16.230	15.060	28.117	 H	1	SAM1	0.000	
39	  H3	11.412	14.047	23.345	 H	1	SAM1	0.000	
40	  H8	14.233	11.665	22.918	 H	1	SAM1	0.000	
41	 H1'	13.978	15.226	23.972	 H	1	SAM1	0.000	
42	 H2'	16.579	15.066	23.267	 H	1	SAM1	0.000	
43	 H2'	16.140	16.853	21.948	 H	1	SAM1	0.000	
44	 H3'	16.285	13.379	21.494	 H	1	SAM1	0.000	
45	 H3'	17.426	15.064	20.702	 H	1	SAM1	0.000	
46	 H4'	13.924	15.030	20.433	 H	1	SAM1	0.000	
47	 H61	15.749	9.792	27.306	 H	1	SAM1	0.000	
48	 H62	16.298	10.514	28.801	 H	1	SAM1	0.000	
49	H5'1	14.615	13.174	19.148	 H	1	SAM1	0.000	
50	H5'2	14.405	12.095	20.547	 H	1	SAM1	0.000	
@<TRIPOS>BOND
1 1 2 1
2 1 36 1
3 1 37 1
4 1 39 1
5 2 3 1
6 2 5 1
7 2 28 1
8 3 4 ar
9 3 17 ar
10 5 6 1
11 5 29 1
12 5 30 1
13 6 7 1
14 6 31 1
15 6 32 1
16 7 8 1
17 7 9 1
18 8 33 1
19 8 34 1
20 8 35 1
21 9 10 1
22 9 49 1
23 9 50 1
24 10 11 1
25 10 12 1
26 10 46 1
27 11 16 1
28 12 13 1
29 12 14 1
30 12 44 1
31 13 45 1
32 14 15 1
33 14 16 1
34 14 42 1
35 15 43 1
36 16 27 1
37 16 41 1
38 18 19 ar
39 18 23 ar
40 19 20 ar
41 19 38 1
42 20 21 ar
43 21 22 ar
44 21 27 ar
45 22 23 ar
46 22 25 ar
47 23 24 1
48 24 47 1
49 24 48 1
50 25 26 ar
51 26 27 ar
52 26 40 1
@<TRIPOS>SUBSTRUCTURE
1	SAM1	1	GROUP	1 A	SAM
