# created with PyMOL 2.5.2
@<TRIPOS>MOLECULE
7PHD
41 45 1                 
SMALL
USER_CHARGES
@<TRIPOS>ATOM
1	  C1	25.534	-11.302	20.827	C.3	1	3VL406	0.000	
2	  N1	30.583	-18.220	17.423	N.3	1	3VL406	0.000	
3	  O1	27.227	-13.312	19.593	O.3	1	3VL406	0.000	
4	  C2	25.355	-12.804	20.986	C.3	1	3VL406	0.000	
5	  O2	22.990	-14.095	19.203	O.co2	1	3VL406	0.000	
6	  C3	25.838	-13.662	19.789	C.3	1	3VL406	0.000	
7	  O3	23.111	-11.895	18.575	O.3	1	3VL406	0.000	
8	  C4	25.623	-15.197	19.879	C.3	1	3VL406	0.000	
9	  O4	24.150	-12.325	13.679	O.2	1	3VL406	0.000	
10	  C5	25.033	-13.192	18.569	C.3	1	3VL406	0.000	
11	  O5	25.888	-17.413	11.358	O.3	1	3VL406	0.000	
12	  C6	23.646	-13.124	18.816	C.2	1	3VL406	0.000	
13	  O6	26.119	-17.184	13.756	O.2	1	3VL406	0.000	
14	  C7	21.715	-11.891	18.885	C.3	1	3VL406	0.000	
15	  O7	26.414	-17.097	16.235	O.3	1	3VL406	0.000	
16	  C8	25.294	-13.865	17.365	C.2	1	3VL406	0.000	
17	  O8	27.583	-15.389	18.684	O.3	1	3VL406	0.000	
18	  C9	24.857	-13.342	16.138	C.2	1	3VL406	0.000	
19	  O9	29.344	-15.208	20.140	O.3	1	3VL406	0.000	
20	 C10	24.988	-14.044	14.935	C.2	1	3VL406	0.000	
21	 O10	31.862	-16.544	19.602	O.3	1	3VL406	0.000	
22	 C11	24.610	-13.469	13.716	C.2	1	3VL406	0.000	
23	 C12	24.748	-14.177	12.528	C.2	1	3VL406	0.000	
24	 C13	24.354	-13.601	11.323	C.2	1	3VL406	0.000	
25	 C14	24.472	-14.284	10.115	C.2	1	3VL406	0.000	
26	 C15	25.000	-15.577	10.115	C.2	1	3VL406	0.000	
27	 C16	25.383	-16.139	11.323	C.2	1	3VL406	0.000	
28	 C17	25.273	-15.454	12.537	C.2	1	3VL406	0.000	
29	 C18	25.660	-16.036	13.751	C.2	1	3VL406	0.000	
30	 C19	25.516	-15.327	14.951	C.2	1	3VL406	0.000	
31	 C20	25.889	-15.851	16.191	C.2	1	3VL406	0.000	
32	 C21	25.754	-15.181	17.405	C.2	1	3VL406	0.000	
33	 C22	26.195	-15.800	18.589	C.3	1	3VL406	0.000	
34	 C23	28.320	-16.149	19.705	C.3	1	3VL406	0.000	
35	 C24	28.972	-17.376	19.090	C.3	1	3VL406	0.000	
36	 C25	30.246	-14.764	19.104	C.3	1	3VL406	0.000	
37	 C26	31.208	-13.765	19.740	C.3	1	3VL406	0.000	
38	 C27	30.994	-15.986	18.559	C.3	1	3VL406	0.000	
39	 C28	29.975	-16.989	17.986	C.3	1	3VL406	0.000	
40	 C29	31.030	-19.221	18.413	C.3	1	3VL406	0.000	
41	 C30	31.621	-17.970	16.438	C.3	1	3VL406	0.000	
@<TRIPOS>BOND
1 1 4 1
2 2 39 1
3 2 40 1
4 2 41 1
5 3 6 1
6 4 6 1
7 5 12 2
8 6 8 1
9 6 10 1
10 7 12 1
11 7 14 1
12 8 33 1
13 9 22 2
14 10 12 1
15 10 16 1
16 11 27 1
17 13 29 2
18 15 31 1
19 17 33 1
20 17 34 1
21 19 34 1
22 19 36 1
23 21 38 1
24 32 33 1
25 34 35 1
26 35 39 1
27 36 37 1
28 36 38 1
29 38 39 1
30 16 32 1
31 31 32 2
32 30 31 1
33 20 30 2
34 18 20 1
35 16 18 2
36 29 30 1
37 28 29 1
38 27 28 2
39 26 27 1
40 23 28 1
41 20 22 1
42 22 23 1
43 25 26 2
44 24 25 1
45 23 24 2
@<TRIPOS>SUBSTRUCTURE
1	3VL406	1	GROUP	1 A	3VL
