@<TRIPOS>MOLECULE
7PHD.A
76 80 1 0 0 
SMALL
USER_CHARGES


@<TRIPOS>ATOM
  1 C1      25.5340   -11.3020    20.8270 C.3   1 Q3VL  -0.2400 
  2 H11     25.1647   -10.7957    21.7188 H     1 Q3VL   0.0800 
  3 H12     24.9743   -10.9595    19.9567 H     1 Q3VL   0.0800 
  4 H13     26.5913   -11.0744    20.6916 H     1 Q3VL   0.0800 
  5 N1      30.5830   -18.2200    17.4230 N.4   1 Q3VL  -0.9590 
  6 H1      29.7988   -18.6383    16.9433 H     1 Q3VL   0.4500 
  7 O1      27.2270   -13.3120    19.5930 O.3   1 Q3VL  -0.6800 
  8 H1      27.5282   -13.7546    18.7962 H     1 Q3VL   0.4000 
  9 C2      25.3550   -12.8040    20.9860 C.3   1 Q3VL  -0.1600 
 10 H21     24.2936   -13.0022    21.1350 H     1 Q3VL   0.0800 
 11 H22     25.9107   -13.1171    21.8699 H     1 Q3VL   0.0800 
 12 O2      22.9900   -14.0950    19.2030 O.2   1 Q3VL  -0.5700 
 13 C3      25.8380   -13.6620    19.7890 C.3   1 Q3VL   0.2800 
 14 O3      23.1110   -11.8950    18.5750 O.3   1 Q3VL  -0.4300 
 15 C4      25.6230   -15.1970    19.8790 C.3   1 Q3VL  -0.1600 
 16 H41     24.5598   -15.4231    19.9599 H     1 Q3VL   0.0800 
 17 H42     26.1470   -15.5993    20.7460 H     1 Q3VL   0.0800 
 18 O4      24.1500   -12.3250    13.6790 O.2   1 Q3VL  -0.5700 
 19 C5      25.0330   -13.1920    18.5690 C.3   1 Q3VL   0.1245 
 20 H5      25.4079   -12.1801    18.4152 H     1 Q3VL   0.0800 
 21 O5      25.8880   -17.4130    11.3580 O.3   1 Q3VL  -0.5325 
 22 H5      26.1273   -17.7307    12.2317 H     1 Q3VL   0.4500 
 23 C6      23.6460   -13.1240    18.8160 C.2   1 Q3VL   0.6590 
 24 O6      26.1190   -17.1840    13.7560 O.2   1 Q3VL  -0.5700 
 25 C7      21.7150   -11.8910    18.8850 C.3   1 Q3VL   0.0400 
 26 H71     21.3017   -10.9020    18.6872 H     1 Q3VL   0.0800 
 27 H72     21.5757   -12.1392    19.9372 H     1 Q3VL   0.0800 
 28 H73     21.2034   -12.6288    18.2669 H     1 Q3VL   0.0800 
 29 O7      26.4140   -17.0970    16.2350 O.3   1 Q3VL  -0.8290 
 30 C8      25.2940   -13.8650    17.3650 C.ar  1 Q3VL  -0.1435 
 31 O8      27.5830   -15.3890    18.6840 O.3   1 Q3VL  -0.5600 
 32 C9      24.8570   -13.3420    16.1380 C.ar  1 Q3VL  -0.1500 
 33 H9      24.4032   -12.3621    16.1220 H     1 Q3VL   0.1500 
 34 O9      29.3440   -15.2080    20.1400 O.3   1 Q3VL  -0.5600 
 35 C10     24.9880   -14.0440    14.9350 C.ar  1 Q3VL   0.0862 
 36 O10     31.8620   -16.5440    19.6020 O.3   1 Q3VL  -0.6800 
 37 H10     31.2986   -16.8413    20.3201 H     1 Q3VL   0.4000 
 38 C11     24.6100   -13.4690    13.7160 C.2   1 Q3VL   0.3976 
 39 C12     24.7480   -14.1770    12.5280 C.ar  1 Q3VL   0.0862 
 40 C13     24.3540   -13.6010    11.3230 C.ar  1 Q3VL  -0.1500 
 41 H13     23.9471   -12.6006    11.3252 H     1 Q3VL   0.1500 
 42 C14     24.4720   -14.2840    10.1150 C.ar  1 Q3VL  -0.1500 
 43 H14     24.1595   -13.8202     9.1911 H     1 Q3VL   0.1500 
 44 C15     25.0000   -15.5770    10.1150 C.ar  1 Q3VL  -0.1500 
 45 H15     25.1078   -16.1280     9.1924 H     1 Q3VL   0.1500 
 46 C16     25.3830   -16.1390    11.3230 C.ar  1 Q3VL   0.0825 
 47 C17     25.2730   -15.4540    12.5370 C.ar  1 Q3VL   0.0862 
 48 C18     25.6600   -16.0360    13.7510 C.2   1 Q3VL   0.3976 
 49 C19     25.5160   -15.3270    14.9510 C.ar  1 Q3VL   0.0862 
 50 C20     25.8890   -15.8510    16.1910 C.ar  1 Q3VL  -0.1710 
 51 C21     25.7540   -15.1810    17.4050 C.ar  1 Q3VL  -0.1435 
 52 C22     26.1950   -15.8000    18.5890 C.3   1 Q3VL   0.3435 
 53 H22     25.9386   -16.8576    18.5278 H     1 Q3VL   0.0800 
 54 C23     28.3200   -16.1490    19.7050 C.3   1 Q3VL   0.4800 
 55 H23     27.6829   -16.5076    20.5135 H     1 Q3VL   0.0800 
 56 C24     28.9720   -17.3760    19.0900 C.3   1 Q3VL  -0.1600 
 57 H241    28.1974   -18.0099    18.6584 H     1 Q3VL   0.0800 
 58 H242    29.4986   -17.9258    19.8701 H     1 Q3VL   0.0800 
 59 C25     30.2460   -14.7640    19.1040 C.3   1 Q3VL   0.2000 
 60 H25     29.7216   -14.2860    18.2766 H     1 Q3VL   0.0800 
 61 C26     31.2080   -13.7650    19.7400 C.3   1 Q3VL  -0.2400 
 62 H261    31.7328   -14.2423    20.5676 H     1 Q3VL   0.0800 
 63 H262    30.6477   -12.9071    20.1116 H     1 Q3VL   0.0800 
 64 H263    31.9308   -13.4319    18.9952 H     1 Q3VL   0.0800 
 65 C27     30.9940   -15.9860    18.5590 C.3   1 Q3VL   0.2000 
 66 H27     31.6542   -15.7087    17.7372 H     1 Q3VL   0.0800 
 67 C28     29.9750   -16.9890    17.9860 C.3   1 Q3VL   0.4230 
 68 H28     29.4820   -16.4853    17.1545 H     1 Q3VL   0.0800 
 69 C29     31.0300   -19.2210    18.4130 C.3   1 Q3VL   0.2630 
 70 H291    30.2365   -19.3921    19.1404 H     1 Q3VL   0.0800 
 71 H292    31.9193   -18.8536    18.9251 H     1 Q3VL   0.0800 
 72 H293    31.2641   -20.1560    17.9040 H     1 Q3VL   0.0800 
 73 C30     31.6210   -17.9700    16.4380 C.3   1 Q3VL   0.2630 
 74 H301    31.2693   -17.2297    15.7194 H     1 Q3VL   0.0800 
 75 H302    31.8587   -18.8976    15.9172 H     1 Q3VL   0.0800 
 76 H303    32.5139   -17.5951    16.9383 H     1 Q3VL   0.0800 
@<TRIPOS>BOND
  1   1   2  1   
  2   1   3  1   
  3   1   4  1   
  4   1   9  1   
  5   5   6  1   
  6   5  67  1   
  7   5  69  1   
  8   5  73  1   
  9   7   8  1   
 10   7  13  1   
 11   9  10  1   
 12   9  11  1   
 13   9  13  1   
 14  12  23  2   
 15  13  15  1   
 16  13  19  1   
 17  14  23  1   
 18  14  25  1   
 19  15  16  1   
 20  15  17  1   
 21  15  52  1   
 22  18  38  2   
 23  19  20  1   
 24  19  23  1   
 25  19  30  1   
 26  21  22  1   
 27  21  46  1   
 28  24  48  2   
 29  25  26  1   
 30  25  27  1   
 31  25  28  1   
 32  29  50  1   
 33  30  32  ar  
 34  30  51  ar  
 35  31  52  1   
 36  31  54  1   
 37  32  33  1   
 38  32  35  ar  
 39  34  54  1   
 40  34  59  1   
 41  35  38  1   
 42  35  49  ar  
 43  36  37  1   
 44  36  65  1   
 45  38  39  1   
 46  39  40  ar  
 47  39  47  ar  
 48  40  41  1   
 49  40  42  ar  
 50  42  43  1   
 51  42  44  ar  
 52  44  45  1   
 53  44  46  ar  
 54  46  47  ar  
 55  47  48  1   
 56  48  49  1   
 57  49  50  ar  
 58  50  51  ar  
 59  51  52  1   
 60  52  53  1   
 61  54  55  1   
 62  54  56  1   
 63  56  57  1   
 64  56  58  1   
 65  56  67  1   
 66  59  60  1   
 67  59  61  1   
 68  59  65  1   
 69  61  62  1   
 70  61  63  1   
 71  61  64  1   
 72  65  66  1   
 73  65  67  1   
 74  67  68  1   
 75  69  70  1   
 76  69  71  1   
 77  69  72  1   
 78  73  74  1   
 79  73  75  1   
 80  73  76  1   
@<TRIPOS>SUBSTRUCTURE
  1 Q3VL  51 GROUP 4 A **** 0

# MOE 2022.02 (io_trps.svl 2020.11)
