# created with PyMOL 2.5.0
@<TRIPOS>MOLECULE
7PHD
27 29 1                 
SMALL
USER_CHARGES
@<TRIPOS>ATOM
1	   N	-1.662	22.366	12.391	N.3	1	SAM404	0.000	
2	  CA	-1.996	20.947	12.562	C.3	1	SAM404	0.000	
3	   C	-1.733	20.461	13.985	C.2	1	SAM404	0.000	
4	   O	-1.972	19.283	14.302	O.co2	1	SAM404	0.000	
5	  CB	-1.219	20.123	11.514	C.3	1	SAM404	0.000	
6	  CG	0.314	20.151	11.576	C.3	1	SAM404	0.000	
7	  SD	1.067	18.984	10.392	S.3	1	SAM404	0.000	
8	  CE	-0.400	17.987	10.216	C.3	1	SAM404	0.000	
9	 C5'	1.542	20.124	9.063	C.3	1	SAM404	0.000	
10	 C4'	0.477	20.359	7.983	C.3	1	SAM404	0.000	
11	 O4'	1.048	21.208	6.974	O.3	1	SAM404	0.000	
12	 C3'	0.013	19.080	7.270	C.3	1	SAM404	0.000	
13	 O3'	-1.363	18.835	7.597	O.3	1	SAM404	0.000	
14	 C2'	0.192	19.370	5.800	C.3	1	SAM404	0.000	
15	 O2'	-0.916	18.969	5.045	O.3	1	SAM404	0.000	
16	 C1'	0.359	20.883	5.784	C.3	1	SAM404	0.000	
17	 OXT	-1.207	21.221	14.810	O.co2	1	SAM404	0.000	
18	  N1	0.386	24.238	1.893	N.2	1	SAM404	0.000	
19	  C2	-0.584	24.026	2.842	C.2	1	SAM404	0.000	
20	  N3	-0.431	23.085	3.819	N.2	1	SAM404	0.000	
21	  C4	0.712	22.340	3.802	C.2	1	SAM404	0.000	
22	  C5	1.694	22.527	2.843	C.2	1	SAM404	0.000	
23	  C6	1.534	23.510	1.857	C.2	1	SAM404	0.000	
24	  N6	2.432	23.758	0.901	N.pl3	1	SAM404	0.000	
25	  N7	2.695	21.646	3.112	N.2	1	SAM404	0.000	
26	  C8	2.372	20.925	4.225	C.2	1	SAM404	0.000	
27	  N9	1.123	21.350	4.641	N.2	1	SAM404	0.000	
@<TRIPOS>BOND
1 1 2 1
2 2 3 1
3 2 5 1
4 3 4 ar
5 3 17 ar
6 5 6 1
7 6 7 1
8 7 8 1
9 7 9 1
10 9 10 1
11 10 11 1
12 10 12 1
13 11 16 1
14 12 13 1
15 12 14 1
16 14 15 1
17 14 16 1
18 16 27 1
19 18 19 ar
20 18 23 ar
21 19 20 ar
22 20 21 ar
23 21 22 ar
24 21 27 ar
25 22 23 ar
26 22 25 ar
27 23 24 1
28 25 26 ar
29 26 27 ar
@<TRIPOS>SUBSTRUCTURE
1	SAM404	1	GROUP	1 B	SAM
