@<TRIPOS>MOLECULE
7PHD.A
51 53 1 0 0 
SMALL
USER_CHARGES


@<TRIPOS>ATOM
  1 N       31.8590   -22.4680    12.3680 N.4   1 SAM  -0.8530 
  2 H1      30.8750   -22.6414    12.5157 H     1 SAM   0.4500 
  3 H2      32.3982   -22.9926    13.0419 H     1 SAM   0.4500 
  4 H3      32.1151   -22.7559    11.4344 H     1 SAM   0.4500 
  5 CA      32.1320   -21.0410    12.5300 C.3   1 SAM   0.3170 
  6 HA      33.2026   -20.9298    12.3578 H     1 SAM   0.0800 
  7 C       31.8060   -20.5350    13.9290 C.2   1 SAM   0.9060 
  8 O       31.3440   -21.3110    14.7620 O.co2 1 SAM  -0.9000 
  9 CB      31.3510   -20.2020    11.5200 C.3   1 SAM  -0.1600 
 10 HB1     31.6642   -20.5234    10.5267 H     1 SAM   0.0800 
 11 HB2     31.6418   -19.1629    11.6742 H     1 SAM   0.0800 
 12 CG      29.8270   -20.2490    11.5460 C.3   1 SAM  -0.1525 
 13 HG1     29.4831   -19.9580    12.5386 H     1 SAM   0.0800 
 14 HG2     29.5030   -21.2678    11.3334 H     1 SAM   0.0800 
 15 SD      29.0900   -19.1330    10.3210 S.3   1 SAM   0.9775 
 16 CE      30.4880   -18.0240    10.2090 C.3   1 SAM  -0.2325 
 17 HE1     30.5571   -17.4331    11.1223 H     1 SAM   0.0800 
 18 HE2     30.3569   -17.3592     9.3552 H     1 SAM   0.0800 
 19 HE3     31.4022   -18.6036    10.0812 H     1 SAM   0.0800 
 20 C5'     28.6200   -20.2990     8.9990 C.3   1 SAM  -0.1525 
 21 H5'1    27.7595   -19.8927     8.4674 H     1 SAM   0.0800 
 22 H5'2    28.3486   -21.2507     9.4558 H     1 SAM   0.0800 
 23 C4'     29.7380   -20.5440     7.9960 C.3   1 SAM   0.2000 
 24 H4'     30.5753   -20.9653     8.5524 H     1 SAM   0.0800 
 25 O4'     29.1810   -21.3810     6.9630 O.3   1 SAM  -0.5600 
 26 C3'     30.2420   -19.2750     7.2670 C.3   1 SAM   0.2000 
 27 H3'     29.7035   -18.3578     7.5054 H     1 SAM   0.0800 
 28 O3'     31.5960   -19.0080     7.6660 O.3   1 SAM  -0.6800 
 29 H3'     31.9048   -18.2539     7.1585 H     1 SAM   0.4000 
 30 C2'     30.0630   -19.6000     5.8020 C.3   1 SAM   0.2000 
 31 H2'     29.2100   -19.0663     5.3829 H     1 SAM   0.0800 
 32 O2'     31.1490   -19.1850     4.9950 O.3   1 SAM  -0.6800 
 33 H2'     31.9372   -19.6268     5.3194 H     1 SAM   0.4000 
 34 C1'     29.8970   -21.1020     5.7750 C.3   1 SAM   0.5691 
 35 H1'     30.8687   -21.5904     5.7018 H     1 SAM   0.0800 
 36 OXT     32.0090   -19.3450    14.2110 O.co2 1 SAM  -0.9000 
 37 N1      29.9510   -24.4780     1.9110 N.2   1 SAM  -0.6610 
 38 C2      30.9220   -24.2710     2.8540 C.2   1 SAM   0.6010 
 39 H2      31.8274   -24.8596     2.8435 H     1 SAM   0.0600 
 40 N3      30.7330   -23.3120     3.8080 N.2   1 SAM  -0.6610 
 41 C4      29.5810   -22.5760     3.7640 C.2   1 SAM   0.5000 
 42 C5      28.5910   -22.7650     2.8100 C.2   1 SAM   0.4500 
 43 C6      28.7780   -23.7580     1.8430 C.2   1 SAM   0.6110 
 44 N6      27.9140   -24.0530     0.8730 N.2   1 SAM  -0.2000 
 45 H62     28.1269   -24.7874     0.2132 H     1 SAM   0.4000 
 46 H61     27.0460   -23.5422     0.7973 H     1 SAM   0.4000 
 47 N7      27.5730   -21.8730     3.0800 N.2   1 SAM  -0.6960 
 48 C8      27.9250   -21.1740     4.1760 C.3   1 SAM   0.4551 
 49 H81     27.1804   -21.3278     4.9570 H     1 SAM   0.0800 
 50 H82     27.9769   -20.1141     3.9271 H     1 SAM   0.0800 
 51 N9      29.1540   -21.5970     4.6280 N.pl3 1 SAM  -0.7882 
@<TRIPOS>BOND
  1   1   2  1   
  2   1   3  1   
  3   1   4  1   
  4   1   5  1   
  5   5   6  1   
  6   5   7  1   
  7   5   9  1   
  8   7   8  ar  
  9   7  36  ar  
 10   9  10  1   
 11   9  11  1   
 12   9  12  1   
 13  12  13  1   
 14  12  14  1   
 15  12  15  1   
 16  15  16  1   
 17  15  20  1   
 18  16  17  1   
 19  16  18  1   
 20  16  19  1   
 21  20  21  1   
 22  20  22  1   
 23  20  23  1   
 24  23  24  1   
 25  23  25  1   
 26  23  26  1   
 27  25  34  1   
 28  26  27  1   
 29  26  28  1   
 30  26  30  1   
 31  28  29  1   
 32  30  31  1   
 33  30  32  1   
 34  30  34  1   
 35  32  33  1   
 36  34  35  1   
 37  34  51  1   
 38  37  38  2   
 39  37  43  1   
 40  38  39  1   
 41  38  40  1   
 42  40  41  2   
 43  41  42  1   
 44  41  51  1   
 45  42  43  1   
 46  42  47  2   
 47  43  44  2   
 48  44  45  1   
 49  44  46  1   
 50  47  48  1   
 51  48  49  1   
 52  48  50  1   
 53  48  51  1   
@<TRIPOS>SUBSTRUCTURE
  1 SAM  25 GROUP 4 A **** 0

# MOE 2022.02 (io_trps.svl 2020.11)
