# created with PyMOL 2.4.0
@<TRIPOS>MOLECULE
temp
50 52 1                 
SMALL
USER_CHARGES
@<TRIPOS>ATOM
1	   N	31.859	-22.468	12.368	N.4	1	SAM1	0.000	
2	  CA	32.132	-21.041	12.530	C.3	1	SAM1	0.000	
3	   C	31.806	-20.535	13.929	C.2	1	SAM1	0.000	
4	   O	31.344	-21.311	14.762	O.co2	1	SAM1	0.000	
5	  CB	31.351	-20.202	11.520	C.3	1	SAM1	0.000	
6	  CG	29.827	-20.249	11.546	C.3	1	SAM1	0.000	
7	  SD	29.090	-19.133	10.321	S.3	1	SAM1	0.000	
8	  CE	30.488	-18.024	10.209	C.3	1	SAM1	0.000	
9	 C5'	28.620	-20.299	8.999	C.3	1	SAM1	0.000	
10	 C4'	29.738	-20.544	7.996	C.3	1	SAM1	0.000	
11	 O4'	29.181	-21.381	6.963	O.3	1	SAM1	0.000	
12	 C3'	30.242	-19.275	7.267	C.3	1	SAM1	0.000	
13	 O3'	31.596	-19.008	7.666	O.3	1	SAM1	0.000	
14	 C2'	30.063	-19.600	5.802	C.3	1	SAM1	0.000	
15	 O2'	31.149	-19.185	4.995	O.3	1	SAM1	0.000	
16	 C1'	29.897	-21.102	5.775	C.3	1	SAM1	0.000	
17	 OXT	32.009	-19.345	14.211	O.co2	1	SAM1	0.000	
18	  N1	29.951	-24.478	1.911	N.2	1	SAM1	0.000	
19	  C2	30.922	-24.271	2.854	C.2	1	SAM1	0.000	
20	  N3	30.733	-23.312	3.808	N.2	1	SAM1	0.000	
21	  C4	29.581	-22.576	3.764	C.2	1	SAM1	0.000	
22	  C5	28.591	-22.765	2.810	C.2	1	SAM1	0.000	
23	  C6	28.778	-23.758	1.843	C.2	1	SAM1	0.000	
24	  N6	27.914	-24.053	0.873	N.pl3	1	SAM1	0.000	
25	  N7	27.573	-21.873	3.080	N.2	1	SAM1	0.000	
26	  C8	27.925	-21.174	4.176	C.2	1	SAM1	0.000	
27	  N9	29.154	-21.597	4.628	N.2	1	SAM1	0.000	
28	  HA	33.203	-20.930	12.358	 H	1	SAM1	0.000	
29	 HB1	31.664	-20.523	10.527	 H	1	SAM1	0.000	
30	 HB2	31.642	-19.163	11.674	 H	1	SAM1	0.000	
31	 HG1	29.483	-19.958	12.539	 H	1	SAM1	0.000	
32	 HG2	29.503	-21.268	11.333	 H	1	SAM1	0.000	
33	 HE1	30.557	-17.433	11.122	 H	1	SAM1	0.000	
34	 HE2	30.357	-17.359	9.355	 H	1	SAM1	0.000	
35	 HE3	31.402	-18.604	10.081	 H	1	SAM1	0.000	
36	  H1	30.875	-22.641	12.516	 H	1	SAM1	0.000	
37	  H2	32.398	-22.993	13.042	 H	1	SAM1	0.000	
38	  H2	31.827	-24.860	2.843	 H	1	SAM1	0.000	
39	  H3	32.115	-22.756	11.434	 H	1	SAM1	0.000	
40	  H8	27.331	-20.396	4.633	 H	1	SAM1	0.000	
41	 H1'	30.869	-21.590	5.702	 H	1	SAM1	0.000	
42	 H2'	29.210	-19.066	5.383	 H	1	SAM1	0.000	
43	 H2'	31.225	-18.232	5.079	 H	1	SAM1	0.000	
44	 H3'	29.704	-18.358	7.505	 H	1	SAM1	0.000	
45	 H3'	31.905	-18.254	7.159	 H	1	SAM1	0.000	
46	 H4'	30.575	-20.965	8.552	 H	1	SAM1	0.000	
47	 H61	27.046	-23.542	0.797	 H	1	SAM1	0.000	
48	 H62	28.127	-24.787	0.213	 H	1	SAM1	0.000	
49	H5'1	27.760	-19.893	8.467	 H	1	SAM1	0.000	
50	H5'2	28.349	-21.251	9.456	 H	1	SAM1	0.000	
@<TRIPOS>BOND
1 1 2 1
2 1 36 1
3 1 37 1
4 1 39 1
5 2 3 1
6 2 5 1
7 2 28 1
8 3 4 ar
9 3 17 ar
10 5 6 1
11 5 29 1
12 5 30 1
13 6 7 1
14 6 31 1
15 6 32 1
16 7 8 1
17 7 9 1
18 8 33 1
19 8 34 1
20 8 35 1
21 9 10 1
22 9 49 1
23 9 50 1
24 10 11 1
25 10 12 1
26 10 46 1
27 11 16 1
28 12 13 1
29 12 14 1
30 12 44 1
31 13 45 1
32 14 15 1
33 14 16 1
34 14 42 1
35 15 43 1
36 16 27 1
37 16 41 1
38 18 19 ar
39 18 23 ar
40 19 20 ar
41 19 38 1
42 20 21 ar
43 21 22 ar
44 21 27 ar
45 22 23 ar
46 22 25 ar
47 23 24 1
48 24 47 1
49 24 48 1
50 25 26 ar
51 26 27 ar
52 26 40 1
@<TRIPOS>SUBSTRUCTURE
1	SAM1	1	GROUP	1 A	SAM
