# created with PyMOL 2.5.0
@<TRIPOS>MOLECULE
7PHD
27 29 1                 
SMALL
USER_CHARGES
@<TRIPOS>ATOM
1	   N	31.859	-22.468	12.368	N.3	1	SAM405	0.000	
2	  CA	32.132	-21.041	12.530	C.3	1	SAM405	0.000	
3	   C	31.806	-20.535	13.929	C.2	1	SAM405	0.000	
4	   O	31.344	-21.311	14.762	O.co2	1	SAM405	0.000	
5	  CB	31.351	-20.202	11.520	C.3	1	SAM405	0.000	
6	  CG	29.827	-20.249	11.546	C.3	1	SAM405	0.000	
7	  SD	29.090	-19.133	10.321	S.3	1	SAM405	0.000	
8	  CE	30.488	-18.024	10.209	C.3	1	SAM405	0.000	
9	 C5'	28.620	-20.299	8.999	C.3	1	SAM405	0.000	
10	 C4'	29.738	-20.544	7.996	C.3	1	SAM405	0.000	
11	 O4'	29.181	-21.381	6.963	O.3	1	SAM405	0.000	
12	 C3'	30.242	-19.275	7.267	C.3	1	SAM405	0.000	
13	 O3'	31.596	-19.008	7.666	O.3	1	SAM405	0.000	
14	 C2'	30.063	-19.600	5.802	C.3	1	SAM405	0.000	
15	 O2'	31.149	-19.185	4.995	O.3	1	SAM405	0.000	
16	 C1'	29.897	-21.102	5.775	C.3	1	SAM405	0.000	
17	 OXT	32.009	-19.345	14.211	O.co2	1	SAM405	0.000	
18	  N1	29.951	-24.478	1.911	N.2	1	SAM405	0.000	
19	  C2	30.922	-24.271	2.854	C.2	1	SAM405	0.000	
20	  N3	30.733	-23.312	3.808	N.2	1	SAM405	0.000	
21	  C4	29.581	-22.576	3.764	C.2	1	SAM405	0.000	
22	  C5	28.591	-22.765	2.810	C.2	1	SAM405	0.000	
23	  C6	28.778	-23.758	1.843	C.2	1	SAM405	0.000	
24	  N6	27.914	-24.053	0.873	N.pl3	1	SAM405	0.000	
25	  N7	27.573	-21.873	3.080	N.2	1	SAM405	0.000	
26	  C8	27.925	-21.174	4.176	C.2	1	SAM405	0.000	
27	  N9	29.154	-21.597	4.628	N.2	1	SAM405	0.000	
@<TRIPOS>BOND
1 1 2 1
2 2 3 1
3 2 5 1
4 3 4 ar
5 3 17 ar
6 5 6 1
7 6 7 1
8 7 8 1
9 7 9 1
10 9 10 1
11 10 11 1
12 10 12 1
13 11 16 1
14 12 13 1
15 12 14 1
16 14 15 1
17 14 16 1
18 16 27 1
19 18 19 ar
20 18 23 ar
21 19 20 ar
22 20 21 ar
23 21 22 ar
24 21 27 ar
25 22 23 ar
26 22 25 ar
27 23 24 1
28 25 26 ar
29 26 27 ar
@<TRIPOS>SUBSTRUCTURE
1	SAM405	1	GROUP	1 A	SAM
