@<TRIPOS>MOLECULE
3S8P.A
51 53 1 0 0 
SMALL
USER_CHARGES


@<TRIPOS>ATOM
  1 N       12.4070    49.5080     5.5110 N.4   1 SAM  -0.8530 
  2 H1      12.4059    49.2805     6.4951 H     1 SAM   0.4500 
  3 H2      12.6943    50.4684     5.3877 H     1 SAM   0.4500 
  4 H3      13.0502    48.8992     5.0254 H     1 SAM   0.4500 
  5 CA      11.0520    49.3270     4.9640 C.3   1 SAM   0.3170 
  6 HA      11.1240    49.5872     3.9080 H     1 SAM   0.0800 
  7 C       10.0540    50.2100     5.6370 C.2   1 SAM   0.9060 
  8 O       10.2970    50.6130     6.8020 O.co2 1 SAM  -0.9000 
  9 CB      10.5680    47.8780     5.1270 C.3   1 SAM  -0.1600 
 10 HB1      9.5123    47.8839     5.3981 H     1 SAM   0.0800 
 11 HB2     11.1436    47.3975     5.9182 H     1 SAM   0.0800 
 12 CG      10.7470    47.0830     3.8220 C.3   1 SAM  -0.1525 
 13 HG1     10.5751    46.0315     4.0521 H     1 SAM   0.0800 
 14 HG2     11.7773    47.2193     3.4934 H     1 SAM   0.0800 
 15 SD       9.7450    47.4900     2.5310 S.3   1 SAM   0.9775 
 16 CE       8.9900    46.0890     2.0480 C.3   1 SAM  -0.2325 
 17 HE1      8.2747    45.7803     2.8104 H     1 SAM   0.0800 
 18 HE2      9.7340    45.3046     1.9090 H     1 SAM   0.0800 
 19 HE3      8.4665    46.2638     1.1081 H     1 SAM   0.0800 
 20 C5'     10.7900    47.7980     1.2460 C.3   1 SAM  -0.1525 
 21 H5'1    10.2345    47.6647     0.3177 H     1 SAM   0.0800 
 22 H5'2    11.6037    47.0741     1.2896 H     1 SAM   0.0800 
 23 C4'     11.4030    49.2060     1.2380 C.3   1 SAM   0.2000 
 24 H4'     10.5808    49.8529     1.5440 H     1 SAM   0.0800 
 25 O4'     12.5400    49.2890     2.1050 O.3   1 SAM  -0.5600 
 26 C3'     11.9610    49.6040    -0.1260 C.3   1 SAM   0.2000 
 27 H3'     12.2778    48.7418    -0.7128 H     1 SAM   0.0800 
 28 O3'     10.9810    50.2310    -0.9500 O.3   1 SAM  -0.6800 
 29 H3'     11.4078    50.4740    -1.7749 H     1 SAM   0.4000 
 30 C2'     13.1190    50.5230     0.2060 C.3   1 SAM   0.2000 
 31 H2'     13.8071    50.6291    -0.6327 H     1 SAM   0.0800 
 32 O2'     12.6600    51.8160     0.5940 O.3   1 SAM  -0.6800 
 33 H2'     12.2147    52.2050    -0.1623 H     1 SAM   0.4000 
 34 C1'     13.6560    49.8970     1.4770 C.3   1 SAM   0.5691 
 35 H1'     14.1483    50.6530     2.0887 H     1 SAM   0.0800 
 36 OXT      9.0020    50.4770     5.0040 O.co2 1 SAM  -0.9000 
 37 N1      17.8970    48.3780    -1.2560 N.2   1 SAM  -0.6610 
 38 C2      17.2500    49.5730    -1.2810 C.2   1 SAM   0.6010 
 39 H2      17.6292    50.3487    -1.9298 H     1 SAM   0.0600 
 40 N3      16.1570    49.8380    -0.5350 N.2   1 SAM  -0.6610 
 41 C4      15.6530    48.8910     0.3210 C.2   1 SAM   0.5000 
 42 C5      16.3240    47.5850     0.4150 C.2   1 SAM   0.4500 
 43 C6      17.4990    47.3690    -0.4510 C.2   1 SAM   0.6110 
 44 N6      18.1430    46.1840    -0.4010 N.2   1 SAM  -0.2000 
 45 H62     18.9488    46.0220    -0.9880 H     1 SAM   0.4000 
 46 H61     17.8192    45.4592     0.2234 H     1 SAM   0.4000 
 47 N7      15.6550    46.8340     1.3080 N.2   1 SAM  -0.6960 
 48 C8      14.6370    47.6020     1.7640 C.3   1 SAM   0.4551 
 49 H81     14.7422    47.7267     2.8417 H     1 SAM   0.0800 
 50 H82     13.6922    47.1040     1.5464 H     1 SAM   0.0800 
 51 N9      14.6370    48.8230     1.1770 N.pl3 1 SAM  -0.7882 
@<TRIPOS>BOND
  1   1   2  1   
  2   1   3  1   
  3   1   4  1   
  4   1   5  1   
  5   5   6  1   
  6   5   7  1   
  7   5   9  1   
  8   7   8  ar  
  9   7  36  ar  
 10   9  10  1   
 11   9  11  1   
 12   9  12  1   
 13  12  13  1   
 14  12  14  1   
 15  12  15  1   
 16  15  16  1   
 17  15  20  1   
 18  16  17  1   
 19  16  18  1   
 20  16  19  1   
 21  20  21  1   
 22  20  22  1   
 23  20  23  1   
 24  23  24  1   
 25  23  25  1   
 26  23  26  1   
 27  25  34  1   
 28  26  27  1   
 29  26  28  1   
 30  26  30  1   
 31  28  29  1   
 32  30  31  1   
 33  30  32  1   
 34  30  34  1   
 35  32  33  1   
 36  34  35  1   
 37  34  51  1   
 38  37  38  2   
 39  37  43  1   
 40  38  39  1   
 41  38  40  1   
 42  40  41  2   
 43  41  42  1   
 44  41  51  1   
 45  42  43  1   
 46  42  47  2   
 47  43  44  2   
 48  44  45  1   
 49  44  46  1   
 50  47  48  1   
 51  48  49  1   
 52  48  50  1   
 53  48  51  1   
@<TRIPOS>SUBSTRUCTURE
  1 SAM  25 GROUP 4 A **** 0

# MOE 2022.02 (io_trps.svl 2020.11)
