# created with PyMOL 2.5.0
@<TRIPOS>MOLECULE
3S8P
27 29 1                 
SMALL
USER_CHARGES
@<TRIPOS>ATOM
1	   N	12.407	49.508	5.511	N.3	1	SAM500	0.000	
2	  CA	11.052	49.327	4.964	C.3	1	SAM500	0.000	
3	   C	10.054	50.210	5.637	C.2	1	SAM500	0.000	
4	   O	10.297	50.613	6.802	O.co2	1	SAM500	0.000	
5	  CB	10.568	47.878	5.127	C.3	1	SAM500	0.000	
6	  CG	10.747	47.083	3.822	C.3	1	SAM500	0.000	
7	  SD	9.745	47.490	2.531	S.3	1	SAM500	0.000	
8	  CE	8.990	46.089	2.048	C.3	1	SAM500	0.000	
9	 C5'	10.790	47.798	1.246	C.3	1	SAM500	0.000	
10	 C4'	11.403	49.206	1.238	C.3	1	SAM500	0.000	
11	 O4'	12.540	49.289	2.105	O.3	1	SAM500	0.000	
12	 C3'	11.961	49.604	-0.126	C.3	1	SAM500	0.000	
13	 O3'	10.981	50.231	-0.950	O.3	1	SAM500	0.000	
14	 C2'	13.119	50.523	0.206	C.3	1	SAM500	0.000	
15	 O2'	12.660	51.816	0.594	O.3	1	SAM500	0.000	
16	 C1'	13.656	49.897	1.477	C.3	1	SAM500	0.000	
17	 OXT	9.002	50.477	5.004	O.co2	1	SAM500	0.000	
18	  N1	17.897	48.378	-1.256	N.2	1	SAM500	0.000	
19	  C2	17.250	49.573	-1.281	C.2	1	SAM500	0.000	
20	  N3	16.157	49.838	-0.535	N.2	1	SAM500	0.000	
21	  C4	15.653	48.891	0.321	C.2	1	SAM500	0.000	
22	  C5	16.324	47.585	0.415	C.2	1	SAM500	0.000	
23	  C6	17.499	47.369	-0.451	C.2	1	SAM500	0.000	
24	  N6	18.143	46.184	-0.401	N.pl3	1	SAM500	0.000	
25	  N7	15.655	46.834	1.308	N.2	1	SAM500	0.000	
26	  C8	14.637	47.602	1.764	C.2	1	SAM500	0.000	
27	  N9	14.637	48.823	1.177	N.2	1	SAM500	0.000	
@<TRIPOS>BOND
1 1 2 1
2 2 3 1
3 2 5 1
4 3 4 ar
5 3 17 ar
6 5 6 1
7 6 7 1
8 7 8 1
9 7 9 1
10 9 10 1
11 10 11 1
12 10 12 1
13 11 16 1
14 12 13 1
15 12 14 1
16 14 15 1
17 14 16 1
18 16 27 1
19 18 19 ar
20 18 23 ar
21 19 20 ar
22 20 21 ar
23 21 22 ar
24 21 27 ar
25 22 23 ar
26 22 25 ar
27 23 24 1
28 25 26 ar
29 26 27 ar
@<TRIPOS>SUBSTRUCTURE
1	SAM500	1	GROUP	1 A	SAM
