# created with PyMOL 2.4.0
@<TRIPOS>MOLECULE
temp
50 52 1                 
SMALL
USER_CHARGES
@<TRIPOS>ATOM
1	   N	12.407	49.508	5.511	N.4	1	SAM1	0.000	
2	  CA	11.052	49.327	4.964	C.3	1	SAM1	0.000	
3	   C	10.054	50.210	5.637	C.2	1	SAM1	0.000	
4	   O	10.297	50.613	6.802	O.co2	1	SAM1	0.000	
5	  CB	10.568	47.878	5.127	C.3	1	SAM1	0.000	
6	  CG	10.747	47.083	3.822	C.3	1	SAM1	0.000	
7	  SD	9.745	47.490	2.531	S.3	1	SAM1	0.000	
8	  CE	8.990	46.089	2.048	C.3	1	SAM1	0.000	
9	 C5'	10.790	47.798	1.246	C.3	1	SAM1	0.000	
10	 C4'	11.403	49.206	1.238	C.3	1	SAM1	0.000	
11	 O4'	12.540	49.289	2.105	O.3	1	SAM1	0.000	
12	 C3'	11.961	49.604	-0.126	C.3	1	SAM1	0.000	
13	 O3'	10.981	50.231	-0.950	O.3	1	SAM1	0.000	
14	 C2'	13.119	50.523	0.206	C.3	1	SAM1	0.000	
15	 O2'	12.660	51.816	0.594	O.3	1	SAM1	0.000	
16	 C1'	13.656	49.897	1.477	C.3	1	SAM1	0.000	
17	 OXT	9.002	50.477	5.004	O.co2	1	SAM1	0.000	
18	  N1	17.897	48.378	-1.256	N.2	1	SAM1	0.000	
19	  C2	17.250	49.573	-1.281	C.2	1	SAM1	0.000	
20	  N3	16.157	49.838	-0.535	N.2	1	SAM1	0.000	
21	  C4	15.653	48.891	0.321	C.2	1	SAM1	0.000	
22	  C5	16.324	47.585	0.415	C.2	1	SAM1	0.000	
23	  C6	17.499	47.369	-0.451	C.2	1	SAM1	0.000	
24	  N6	18.143	46.184	-0.401	N.pl3	1	SAM1	0.000	
25	  N7	15.655	46.834	1.308	N.2	1	SAM1	0.000	
26	  C8	14.637	47.602	1.764	C.2	1	SAM1	0.000	
27	  N9	14.637	48.823	1.177	N.2	1	SAM1	0.000	
28	  HA	11.124	49.587	3.908	 H	1	SAM1	0.000	
29	 HB1	9.512	47.884	5.398	 H	1	SAM1	0.000	
30	 HB2	11.144	47.397	5.918	 H	1	SAM1	0.000	
31	 HG1	10.575	46.032	4.052	 H	1	SAM1	0.000	
32	 HG2	11.777	47.219	3.493	 H	1	SAM1	0.000	
33	 HE1	8.275	45.780	2.810	 H	1	SAM1	0.000	
34	 HE2	9.734	45.305	1.909	 H	1	SAM1	0.000	
35	 HE3	8.467	46.264	1.108	 H	1	SAM1	0.000	
36	  H1	12.406	49.280	6.495	 H	1	SAM1	0.000	
37	  H2	12.694	50.468	5.388	 H	1	SAM1	0.000	
38	  H2	17.629	50.349	-1.930	 H	1	SAM1	0.000	
39	  H3	13.050	48.899	5.025	 H	1	SAM1	0.000	
40	  H8	13.917	47.282	2.502	 H	1	SAM1	0.000	
41	 H1'	14.148	50.653	2.089	 H	1	SAM1	0.000	
42	 H2'	13.807	50.629	-0.633	 H	1	SAM1	0.000	
43	 H2'	12.215	52.205	-0.162	 H	1	SAM1	0.000	
44	 H3'	12.278	48.742	-0.713	 H	1	SAM1	0.000	
45	 H3'	11.408	50.474	-1.775	 H	1	SAM1	0.000	
46	 H4'	10.581	49.853	1.544	 H	1	SAM1	0.000	
47	 H61	17.819	45.459	0.223	 H	1	SAM1	0.000	
48	 H62	18.949	46.022	-0.988	 H	1	SAM1	0.000	
49	H5'1	10.234	47.665	0.318	 H	1	SAM1	0.000	
50	H5'2	11.604	47.074	1.290	 H	1	SAM1	0.000	
@<TRIPOS>BOND
1 1 2 1
2 1 36 1
3 1 37 1
4 1 39 1
5 2 3 1
6 2 5 1
7 2 28 1
8 3 4 ar
9 3 17 ar
10 5 6 1
11 5 29 1
12 5 30 1
13 6 7 1
14 6 31 1
15 6 32 1
16 7 8 1
17 7 9 1
18 8 33 1
19 8 34 1
20 8 35 1
21 9 10 1
22 9 49 1
23 9 50 1
24 10 11 1
25 10 12 1
26 10 46 1
27 11 16 1
28 12 13 1
29 12 14 1
30 12 44 1
31 13 45 1
32 14 15 1
33 14 16 1
34 14 42 1
35 15 43 1
36 16 27 1
37 16 41 1
38 18 19 ar
39 18 23 ar
40 19 20 ar
41 19 38 1
42 20 21 ar
43 21 22 ar
44 21 27 ar
45 22 23 ar
46 22 25 ar
47 23 24 1
48 24 47 1
49 24 48 1
50 25 26 ar
51 26 27 ar
52 26 40 1
@<TRIPOS>SUBSTRUCTURE
1	SAM1	1	GROUP	1 A	SAM
