# created with PyMOL 2.5.0
@<TRIPOS>MOLECULE
1G60
27 29 1                 
SMALL
USER_CHARGES
@<TRIPOS>ATOM
1	   N	2.400	53.493	-2.679	N.3	1	SAM500	0.000	
2	  CA	1.199	54.287	-2.321	C.3	1	SAM500	0.000	
3	   C	1.611	55.764	-2.255	C.3	1	SAM500	0.000	
4	   O	2.843	56.011	-2.478	O.3	1	SAM500	0.000	
5	  CB	0.619	53.858	-0.971	C.3	1	SAM500	0.000	
6	  CG	-0.362	52.711	-1.081	C.3	1	SAM500	0.000	
7	  SD	-1.056	52.215	0.532	S.3	1	SAM500	0.000	
8	  CE	0.114	51.281	1.556	C.3	1	SAM500	0.000	
9	 C5'	-2.275	50.914	0.173	C.3	1	SAM500	0.000	
10	 C4'	-3.585	51.608	-0.346	C.3	1	SAM500	0.000	
11	 O4'	-4.426	50.470	-0.560	O.3	1	SAM500	0.000	
12	 C3'	-4.403	52.603	0.473	C.3	1	SAM500	0.000	
13	 O3'	-4.554	53.888	-0.199	O.3	1	SAM500	0.000	
14	 C2'	-5.837	51.933	0.551	C.3	1	SAM500	0.000	
15	 O2'	-6.985	52.842	0.415	O.3	1	SAM500	0.000	
16	 C1'	-5.791	50.947	-0.651	C.3	1	SAM500	0.000	
17	 OXT	0.888	56.591	-1.692	O.3	1	SAM500	0.000	
18	  N1	-8.683	47.421	-2.983	N.2	1	SAM500	0.000	
19	  C2	-8.314	48.640	-3.333	C.2	1	SAM500	0.000	
20	  N3	-7.616	49.613	-2.692	N.2	1	SAM500	0.000	
21	  C4	-7.329	49.059	-1.427	C.2	1	SAM500	0.000	
22	  C5	-7.660	47.818	-0.886	C.2	1	SAM500	0.000	
23	  C6	-8.412	46.913	-1.752	C.2	1	SAM500	0.000	
24	  N6	-8.790	45.679	-1.351	N.pl3	1	SAM500	0.000	
25	  N7	-7.142	47.667	0.442	N.2	1	SAM500	0.000	
26	  C8	-6.547	48.815	0.662	C.2	1	SAM500	0.000	
27	  N9	-6.611	49.738	-0.383	N.2	1	SAM500	0.000	
@<TRIPOS>BOND
1 1 2 1
2 2 3 1
3 2 5 1
4 3 4 1
5 3 17 1
6 5 6 1
7 6 7 1
8 7 8 1
9 7 9 1
10 9 10 1
11 10 11 1
12 10 12 1
13 11 16 1
14 12 13 1
15 12 14 1
16 14 15 1
17 14 16 1
18 16 27 1
19 18 19 ar
20 18 23 ar
21 19 20 ar
22 20 21 ar
23 21 22 ar
24 21 27 ar
25 22 23 ar
26 22 25 ar
27 23 24 1
28 25 26 ar
29 26 27 ar
@<TRIPOS>SUBSTRUCTURE
1	SAM500	1	GROUP	1 A	SAM
