# created with PyMOL 2.4.0
@<TRIPOS>MOLECULE
temp
50 52 1                 
SMALL
USER_CHARGES
@<TRIPOS>ATOM
1	   N	31.699	31.569	9.866	N.4	1	SAM1	0.000	
2	  CA	32.928	30.813	9.448	C.3	1	SAM1	0.000	
3	   C	34.135	31.755	9.538	C.2	1	SAM1	0.000	
4	   O	33.868	32.915	9.961	O.co2	1	SAM1	0.000	
5	  CB	32.804	30.321	8.021	C.3	1	SAM1	0.000	
6	  CG	32.086	28.990	7.909	C.3	1	SAM1	0.000	
7	  SD	31.831	28.506	6.174	S.3	1	SAM1	0.000	
8	  CE	30.700	29.572	5.268	C.3	1	SAM1	0.000	
9	 C5'	31.003	26.906	6.181	C.3	1	SAM1	0.000	
10	 C4'	31.989	25.811	6.695	C.3	1	SAM1	0.000	
11	 O4'	31.160	24.658	6.642	O.3	1	SAM1	0.000	
12	 C3'	33.287	25.429	5.965	C.3	1	SAM1	0.000	
13	 O3'	34.410	25.612	6.875	O.3	1	SAM1	0.000	
14	 C2'	33.104	23.876	5.701	C.3	1	SAM1	0.000	
15	 O2'	34.338	23.092	5.937	O.3	1	SAM1	0.000	
16	 C1'	32.020	23.483	6.739	C.3	1	SAM1	0.000	
17	 OXT	35.266	31.369	9.227	O.co2	1	SAM1	0.000	
18	  N1	29.698	19.161	8.387	N.2	1	SAM1	0.000	
19	  C2	30.598	19.938	8.991	C.2	1	SAM1	0.000	
20	  N3	31.207	21.048	8.498	N.2	1	SAM1	0.000	
21	  C4	30.723	21.281	7.198	C.2	1	SAM1	0.000	
22	  C5	29.783	20.546	6.458	C.2	1	SAM1	0.000	
23	  C6	29.235	19.369	7.126	C.2	1	SAM1	0.000	
24	  N6	28.308	18.520	6.618	N.pl3	1	SAM1	0.000	
25	  N7	29.568	21.162	5.180	N.2	1	SAM1	0.000	
26	  C8	30.377	22.196	5.169	C.2	1	SAM1	0.000	
27	  N9	31.127	22.352	6.333	N.2	1	SAM1	0.000	
28	  HA	33.051	29.952	10.105	 H	1	SAM1	0.000	
29	 HB1	33.805	30.211	7.604	 H	1	SAM1	0.000	
30	 HB2	32.250	31.063	7.445	 H	1	SAM1	0.000	
31	 HG1	31.116	29.070	8.400	 H	1	SAM1	0.000	
32	 HG2	32.682	28.224	8.405	 H	1	SAM1	0.000	
33	 HE1	31.117	30.577	5.208	 H	1	SAM1	0.000	
34	 HE2	29.741	29.607	5.785	 H	1	SAM1	0.000	
35	 HE3	30.557	29.178	4.262	 H	1	SAM1	0.000	
36	  H1	31.575	32.370	9.263	 H	1	SAM1	0.000	
37	  H2	31.803	31.880	10.821	 H	1	SAM1	0.000	
38	  H2	30.877	19.650	9.994	 H	1	SAM1	0.000	
39	  H3	30.892	30.966	9.795	 H	1	SAM1	0.000	
40	  H8	30.455	22.869	4.328	 H	1	SAM1	0.000	
41	 H1'	32.478	23.198	7.686	 H	1	SAM1	0.000	
42	 H2'	32.843	23.671	4.663	 H	1	SAM1	0.000	
43	 H2'	34.608	23.242	6.846	 H	1	SAM1	0.000	
44	 H3'	33.470	26.014	5.063	 H	1	SAM1	0.000	
45	 H3'	35.201	25.306	6.425	 H	1	SAM1	0.000	
46	 H4'	32.399	26.207	7.624	 H	1	SAM1	0.000	
47	 H61	27.932	18.677	5.694	 H	1	SAM1	0.000	
48	 H62	27.993	17.731	7.164	 H	1	SAM1	0.000	
49	H5'1	30.681	26.659	5.169	 H	1	SAM1	0.000	
50	H5'2	30.134	26.950	6.838	 H	1	SAM1	0.000	
@<TRIPOS>BOND
1 1 2 1
2 1 36 1
3 1 37 1
4 1 39 1
5 2 3 1
6 2 5 1
7 2 28 1
8 3 4 ar
9 3 17 ar
10 5 6 1
11 5 29 1
12 5 30 1
13 6 7 1
14 6 31 1
15 6 32 1
16 7 8 1
17 7 9 1
18 8 33 1
19 8 34 1
20 8 35 1
21 9 10 1
22 9 49 1
23 9 50 1
24 10 11 1
25 10 12 1
26 10 46 1
27 11 16 1
28 12 13 1
29 12 14 1
30 12 44 1
31 13 45 1
32 14 15 1
33 14 16 1
34 14 42 1
35 15 43 1
36 16 27 1
37 16 41 1
38 18 19 ar
39 18 23 ar
40 19 20 ar
41 19 38 1
42 20 21 ar
43 21 22 ar
44 21 27 ar
45 22 23 ar
46 22 25 ar
47 23 24 1
48 24 47 1
49 24 48 1
50 25 26 ar
51 26 27 ar
52 26 40 1
@<TRIPOS>SUBSTRUCTURE
1	SAM1	1	GROUP	1 B	SAM
