@<TRIPOS>MOLECULE
1G60.B
51 53 1 0 0 
SMALL
USER_CHARGES


@<TRIPOS>ATOM
  1 N       31.6990    31.5690     9.8660 N.4   1 SAM  -0.8530 
  2 H1      31.5751    32.3698     9.2631 H     1 SAM   0.4500 
  3 H2      31.8035    31.8798    10.8213 H     1 SAM   0.4500 
  4 H3      30.8921    30.9657     9.7946 H     1 SAM   0.4500 
  5 CA      32.9280    30.8130     9.4480 C.3   1 SAM   0.3170 
  6 HA      33.0507    29.9522    10.1054 H     1 SAM   0.0800 
  7 C       34.1350    31.7550     9.5380 C.2   1 SAM   0.9060 
  8 O       33.8680    32.9150     9.9610 O.co2 1 SAM  -0.9000 
  9 CB      32.8040    30.3210     8.0210 C.3   1 SAM  -0.1600 
 10 HB1     33.8051    30.2109     7.6042 H     1 SAM   0.0800 
 11 HB2     32.2504    31.0629     7.4455 H     1 SAM   0.0800 
 12 CG      32.0860    28.9900     7.9090 C.3   1 SAM  -0.1525 
 13 HG1     31.1159    29.0697     8.3996 H     1 SAM   0.0800 
 14 HG2     32.6823    28.2243     8.4052 H     1 SAM   0.0800 
 15 SD      31.8310    28.5060     6.1740 S.3   1 SAM   0.9775 
 16 CE      30.7000    29.5720     5.2680 C.3   1 SAM  -0.2325 
 17 HE1     31.1173    30.5772     5.2085 H     1 SAM   0.0800 
 18 HE2     29.7409    29.6067     5.7847 H     1 SAM   0.0800 
 19 HE3     30.5566    29.1779     4.2619 H     1 SAM   0.0800 
 20 C5'     31.0030    26.9060     6.1810 C.3   1 SAM  -0.1525 
 21 H5'1    30.6815    26.6591     5.1692 H     1 SAM   0.0800 
 22 H5'2    30.1342    26.9496     6.8378 H     1 SAM   0.0800 
 23 C4'     31.9890    25.8110     6.6950 C.3   1 SAM   0.2000 
 24 H4'     32.3987    26.2066     7.6244 H     1 SAM   0.0800 
 25 O4'     31.1600    24.6580     6.6420 O.3   1 SAM  -0.5600 
 26 C3'     33.2870    25.4290     5.9650 C.3   1 SAM   0.2000 
 27 H3'     33.4695    26.0138     5.0635 H     1 SAM   0.0800 
 28 O3'     34.4100    25.6120     6.8750 O.3   1 SAM  -0.6800 
 29 H3'     35.2010    25.3062     6.4251 H     1 SAM   0.4000 
 30 C2'     33.1040    23.8760     5.7010 C.3   1 SAM   0.2000 
 31 H2'     32.8432    23.6709     4.6627 H     1 SAM   0.0800 
 32 O2'     34.3380    23.0920     5.9370 O.3   1 SAM  -0.6800 
 33 H2'     34.6079    23.2422     6.8459 H     1 SAM   0.4000 
 34 C1'     32.0200    23.4830     6.7390 C.3   1 SAM   0.5691 
 35 H1'     32.4782    23.1979     7.6860 H     1 SAM   0.0800 
 36 OXT     35.2660    31.3690     9.2270 O.co2 1 SAM  -0.9000 
 37 N1      29.6980    19.1610     8.3870 N.2   1 SAM  -0.6610 
 38 C2      30.5980    19.9380     8.9910 C.2   1 SAM   0.6010 
 39 H2      30.8766    19.6499     9.9939 H     1 SAM   0.0600 
 40 N3      31.2070    21.0480     8.4980 N.2   1 SAM  -0.6610 
 41 C4      30.7230    21.2810     7.1980 C.2   1 SAM   0.5000 
 42 C5      29.7830    20.5460     6.4580 C.2   1 SAM   0.4500 
 43 C6      29.2350    19.3690     7.1260 C.2   1 SAM   0.6110 
 44 N6      28.3080    18.5200     6.6180 N.2   1 SAM  -0.2000 
 45 H62     27.9931    17.7307     7.1639 H     1 SAM   0.4000 
 46 H61     27.9323    18.6768     5.6937 H     1 SAM   0.4000 
 47 N7      29.5680    21.1620     5.1800 N.2   1 SAM  -0.6960 
 48 C8      30.3770    22.1960     5.1690 C.3   1 SAM   0.4551 
 49 H81     29.7785    23.0957     5.0258 H     1 SAM   0.0800 
 50 H82     31.0660    22.0810     4.3323 H     1 SAM   0.0800 
 51 N9      31.1270    22.3520     6.3330 N.pl3 1 SAM  -0.7882 
@<TRIPOS>BOND
  1   1   2  1   
  2   1   3  1   
  3   1   4  1   
  4   1   5  1   
  5   5   6  1   
  6   5   7  1   
  7   5   9  1   
  8   7   8  ar  
  9   7  36  ar  
 10   9  10  1   
 11   9  11  1   
 12   9  12  1   
 13  12  13  1   
 14  12  14  1   
 15  12  15  1   
 16  15  16  1   
 17  15  20  1   
 18  16  17  1   
 19  16  18  1   
 20  16  19  1   
 21  20  21  1   
 22  20  22  1   
 23  20  23  1   
 24  23  24  1   
 25  23  25  1   
 26  23  26  1   
 27  25  34  1   
 28  26  27  1   
 29  26  28  1   
 30  26  30  1   
 31  28  29  1   
 32  30  31  1   
 33  30  32  1   
 34  30  34  1   
 35  32  33  1   
 36  34  35  1   
 37  34  51  1   
 38  37  38  2   
 39  37  43  1   
 40  38  39  1   
 41  38  40  1   
 42  40  41  2   
 43  41  42  1   
 44  41  51  1   
 45  42  43  1   
 46  42  47  2   
 47  43  44  2   
 48  44  45  1   
 49  44  46  1   
 50  47  48  1   
 51  48  49  1   
 52  48  50  1   
 53  48  51  1   
@<TRIPOS>SUBSTRUCTURE
  1 SAM  23 GROUP 4 B **** 0

# MOE 2022.02 (io_trps.svl 2020.11)
