# created with PyMOL 2.5.0
@<TRIPOS>MOLECULE
1G60
27 29 1                 
SMALL
USER_CHARGES
@<TRIPOS>ATOM
1	   N	31.699	31.569	9.866	N.3	1	SAM501	0.000	
2	  CA	32.928	30.813	9.448	C.3	1	SAM501	0.000	
3	   C	34.135	31.755	9.538	C.2	1	SAM501	0.000	
4	   O	33.868	32.915	9.961	O.co2	1	SAM501	0.000	
5	  CB	32.804	30.321	8.021	C.3	1	SAM501	0.000	
6	  CG	32.086	28.990	7.909	C.3	1	SAM501	0.000	
7	  SD	31.831	28.506	6.174	S.3	1	SAM501	0.000	
8	  CE	30.700	29.572	5.268	C.3	1	SAM501	0.000	
9	 C5'	31.003	26.906	6.181	C.3	1	SAM501	0.000	
10	 C4'	31.989	25.811	6.695	C.3	1	SAM501	0.000	
11	 O4'	31.160	24.658	6.642	O.3	1	SAM501	0.000	
12	 C3'	33.287	25.429	5.965	C.3	1	SAM501	0.000	
13	 O3'	34.410	25.612	6.875	O.3	1	SAM501	0.000	
14	 C2'	33.104	23.876	5.701	C.3	1	SAM501	0.000	
15	 O2'	34.338	23.092	5.937	O.3	1	SAM501	0.000	
16	 C1'	32.020	23.483	6.739	C.3	1	SAM501	0.000	
17	 OXT	35.266	31.369	9.227	O.co2	1	SAM501	0.000	
18	  N1	29.698	19.161	8.387	N.2	1	SAM501	0.000	
19	  C2	30.598	19.938	8.991	C.2	1	SAM501	0.000	
20	  N3	31.207	21.048	8.498	N.2	1	SAM501	0.000	
21	  C4	30.723	21.281	7.198	C.2	1	SAM501	0.000	
22	  C5	29.783	20.546	6.458	C.2	1	SAM501	0.000	
23	  C6	29.235	19.369	7.126	C.2	1	SAM501	0.000	
24	  N6	28.308	18.520	6.618	N.pl3	1	SAM501	0.000	
25	  N7	29.568	21.162	5.180	N.2	1	SAM501	0.000	
26	  C8	30.377	22.196	5.169	C.2	1	SAM501	0.000	
27	  N9	31.127	22.352	6.333	N.2	1	SAM501	0.000	
@<TRIPOS>BOND
1 1 2 1
2 2 3 1
3 2 5 1
4 3 4 ar
5 3 17 ar
6 5 6 1
7 6 7 1
8 7 8 1
9 7 9 1
10 9 10 1
11 10 11 1
12 10 12 1
13 11 16 1
14 12 13 1
15 12 14 1
16 14 15 1
17 14 16 1
18 16 27 1
19 18 19 ar
20 18 23 ar
21 19 20 ar
22 20 21 ar
23 21 22 ar
24 21 27 ar
25 22 23 ar
26 22 25 ar
27 23 24 1
28 25 26 ar
29 26 27 ar
@<TRIPOS>SUBSTRUCTURE
1	SAM501	1	GROUP	1 B	SAM
