@<TRIPOS>MOLECULE
1G60.A
54 56 1 0 0 
SMALL
USER_CHARGES


@<TRIPOS>ATOM
  1 N        2.4000    53.4930    -2.6790 N.4   1 SAM  -0.8530 
  2 H1       3.1188    53.6382    -1.9845 H     1 SAM   0.4500 
  3 H2       2.7409    53.7872    -3.5831 H     1 SAM   0.4500 
  4 H3       2.1579    52.5131    -2.7131 H     1 SAM   0.4500 
  5 CA       1.1990    54.2870    -2.3210 C.3   1 SAM   0.4230 
  6 HA       0.4284    54.1251    -3.0747 H     1 SAM   0.0800 
  7 C        1.6110    55.7640    -2.2550 C.3   1 SAM   0.4800 
  8 H        1.1795    56.1473    -3.1797 H     1 SAM   0.0800 
  9 O        2.8430    56.0110    -2.4780 O.3   1 SAM  -0.6800 
 10 H        2.9313    56.9589    -2.6014 H     1 SAM   0.4000 
 11 CB       0.6190    53.8580    -0.9710 C.3   1 SAM  -0.1600 
 12 HB1      0.1059    54.7113    -0.5275 H     1 SAM   0.0800 
 13 HB2      1.4400    53.5508    -0.3231 H     1 SAM   0.0800 
 14 CG      -0.3620    52.7110    -1.0810 C.3   1 SAM  -0.1525 
 15 HG1      0.1517    51.8543    -1.5171 H     1 SAM   0.0800 
 16 HG2     -1.1806    53.0145    -1.7336 H     1 SAM   0.0800 
 17 SD      -1.0560    52.2150     0.5320 S.3   1 SAM   0.9775 
 18 CE       0.1140    51.2810     1.5560 C.3   1 SAM  -0.2325 
 19 HE1      0.9299    51.9350     1.8638 H     1 SAM   0.0800 
 20 HE2      0.5146    50.4464     0.9806 H     1 SAM   0.0800 
 21 HE3     -0.3994    50.9003     2.4390 H     1 SAM   0.0800 
 22 C5'     -2.2750    50.9140     0.1730 C.3   1 SAM  -0.1525 
 23 H5'1    -2.4901    50.3481     1.0794 H     1 SAM   0.0800 
 24 H5'2    -1.8847    50.2417    -0.5910 H     1 SAM   0.0800 
 25 C4'     -3.5850    51.6080    -0.3460 C.3   1 SAM   0.2000 
 26 H4'     -3.2597    52.2655    -1.1522 H     1 SAM   0.0800 
 27 O4'     -4.4260    50.4700    -0.5600 O.3   1 SAM  -0.5600 
 28 C3'     -4.4030    52.6030     0.4730 C.3   1 SAM   0.2000 
 29 H3'     -3.9247    52.7986     1.4327 H     1 SAM   0.0800 
 30 O3'     -4.5540    53.8880    -0.1990 O.3   1 SAM  -0.6800 
 31 H3'     -5.1004    54.4454     0.3599 H     1 SAM   0.4000 
 32 C2'     -5.8370    51.9330     0.5510 C.3   1 SAM   0.2000 
 33 H2'     -6.0026    51.4950     1.5353 H     1 SAM   0.0800 
 34 O2'     -6.9850    52.8420     0.4150 O.3   1 SAM  -0.6800 
 35 H2'     -6.9134    53.2743    -0.4392 H     1 SAM   0.4000 
 36 C1'     -5.7910    50.9470    -0.6510 C.3   1 SAM   0.5691 
 37 H1'     -6.1205    51.4126    -1.5798 H     1 SAM   0.0800 
 38 OXT      0.8880    56.5910    -1.6920 O.3   1 SAM  -0.6800 
 39 HXT      1.1373    57.4607    -2.0130 H     1 SAM   0.4000 
 40 N1      -8.6830    47.4210    -2.9830 N.2   1 SAM  -0.6610 
 41 C2      -8.3140    48.6400    -3.3330 C.2   1 SAM   0.6010 
 42 H2      -8.6304    48.9187    -4.3273 H     1 SAM   0.0600 
 43 N3      -7.6160    49.6130    -2.6920 N.2   1 SAM  -0.6610 
 44 C4      -7.3290    49.0590    -1.4270 C.2   1 SAM   0.5000 
 45 C5      -7.6600    47.8180    -0.8860 C.2   1 SAM   0.4500 
 46 C6      -8.4120    46.9130    -1.7520 C.2   1 SAM   0.6110 
 47 N6      -8.7900    45.6790    -1.3510 N.2   1 SAM  -0.2000 
 48 H62     -9.3092    45.0812    -1.9780 H     1 SAM   0.4000 
 49 H61     -8.5533    45.3546    -0.4243 H     1 SAM   0.4000 
 50 N7      -7.1420    47.6670     0.4420 N.2   1 SAM  -0.6960 
 51 C8      -6.5470    48.8150     0.6620 C.3   1 SAM   0.4551 
 52 H81     -5.4957    48.6137     0.8676 H     1 SAM   0.0800 
 53 H82     -7.0083    49.2690     1.5390 H     1 SAM   0.0800 
 54 N9      -6.6110    49.7380    -0.3830 N.pl3 1 SAM  -0.7882 
@<TRIPOS>BOND
  1   1   2  1   
  2   1   3  1   
  3   1   4  1   
  4   1   5  1   
  5   5   6  1   
  6   5   7  1   
  7   5  11  1   
  8   7   8  1   
  9   7   9  1   
 10   7  38  1   
 11   9  10  1   
 12  11  12  1   
 13  11  13  1   
 14  11  14  1   
 15  14  15  1   
 16  14  16  1   
 17  14  17  1   
 18  17  18  1   
 19  17  22  1   
 20  18  19  1   
 21  18  20  1   
 22  18  21  1   
 23  22  23  1   
 24  22  24  1   
 25  22  25  1   
 26  25  26  1   
 27  25  27  1   
 28  25  28  1   
 29  27  36  1   
 30  28  29  1   
 31  28  30  1   
 32  28  32  1   
 33  30  31  1   
 34  32  33  1   
 35  32  34  1   
 36  32  36  1   
 37  34  35  1   
 38  36  37  1   
 39  36  54  1   
 40  38  39  1   
 41  40  41  2   
 42  40  46  1   
 43  41  42  1   
 44  41  43  1   
 45  43  44  2   
 46  44  45  1   
 47  44  54  1   
 48  45  46  1   
 49  45  50  2   
 50  46  47  2   
 51  47  48  1   
 52  47  49  1   
 53  50  51  1   
 54  51  52  1   
 55  51  53  1   
 56  51  54  1   
@<TRIPOS>SUBSTRUCTURE
  1 SAM  25 GROUP 4 A **** 0

# MOE 2022.02 (io_trps.svl 2020.11)
