# created with PyMOL 2.4.0
@<TRIPOS>MOLECULE
temp
50 52 1                 
SMALL
USER_CHARGES
@<TRIPOS>ATOM
1	   N	2.400	53.493	-2.679	N.4	1	SAM1	0.000	
2	  CA	1.199	54.287	-2.321	C.3	1	SAM1	0.000	
3	   C	1.611	55.764	-2.255	C.2	1	SAM1	0.000	
4	   O	2.843	56.011	-2.478	O.co2	1	SAM1	0.000	
5	  CB	0.619	53.858	-0.971	C.3	1	SAM1	0.000	
6	  CG	-0.362	52.711	-1.081	C.3	1	SAM1	0.000	
7	  SD	-1.056	52.215	0.532	S.3	1	SAM1	0.000	
8	  CE	0.114	51.281	1.556	C.3	1	SAM1	0.000	
9	 C5'	-2.275	50.914	0.173	C.3	1	SAM1	0.000	
10	 C4'	-3.585	51.608	-0.346	C.3	1	SAM1	0.000	
11	 O4'	-4.426	50.470	-0.560	O.3	1	SAM1	0.000	
12	 C3'	-4.403	52.603	0.473	C.3	1	SAM1	0.000	
13	 O3'	-4.554	53.888	-0.199	O.3	1	SAM1	0.000	
14	 C2'	-5.837	51.933	0.551	C.3	1	SAM1	0.000	
15	 O2'	-6.985	52.842	0.415	O.3	1	SAM1	0.000	
16	 C1'	-5.791	50.947	-0.651	C.3	1	SAM1	0.000	
17	 OXT	0.888	56.591	-1.692	O.co2	1	SAM1	0.000	
18	  N1	-8.683	47.421	-2.983	N.2	1	SAM1	0.000	
19	  C2	-8.314	48.640	-3.333	C.2	1	SAM1	0.000	
20	  N3	-7.616	49.613	-2.692	N.2	1	SAM1	0.000	
21	  C4	-7.329	49.059	-1.427	C.2	1	SAM1	0.000	
22	  C5	-7.660	47.818	-0.886	C.2	1	SAM1	0.000	
23	  C6	-8.412	46.913	-1.752	C.2	1	SAM1	0.000	
24	  N6	-8.790	45.679	-1.351	N.pl3	1	SAM1	0.000	
25	  N7	-7.142	47.667	0.442	N.2	1	SAM1	0.000	
26	  C8	-6.547	48.815	0.662	C.2	1	SAM1	0.000	
27	  N9	-6.611	49.738	-0.383	N.2	1	SAM1	0.000	
28	  HA	0.428	54.125	-3.075	 H	1	SAM1	0.000	
29	 HB1	0.106	54.711	-0.527	 H	1	SAM1	0.000	
30	 HB2	1.440	53.551	-0.323	 H	1	SAM1	0.000	
31	 HG1	0.152	51.854	-1.517	 H	1	SAM1	0.000	
32	 HG2	-1.181	53.014	-1.734	 H	1	SAM1	0.000	
33	 HE1	0.930	51.935	1.864	 H	1	SAM1	0.000	
34	 HE2	0.515	50.446	0.981	 H	1	SAM1	0.000	
35	 HE3	-0.399	50.900	2.439	 H	1	SAM1	0.000	
36	  H1	3.119	53.638	-1.985	 H	1	SAM1	0.000	
37	  H2	2.741	53.787	-3.583	 H	1	SAM1	0.000	
38	  H2	-8.630	48.919	-4.327	 H	1	SAM1	0.000	
39	  H3	2.158	52.513	-2.713	 H	1	SAM1	0.000	
40	  H8	-6.041	49.032	1.591	 H	1	SAM1	0.000	
41	 H1'	-6.121	51.413	-1.580	 H	1	SAM1	0.000	
42	 H2'	-6.003	51.495	1.535	 H	1	SAM1	0.000	
43	 H2'	-6.913	53.274	-0.439	 H	1	SAM1	0.000	
44	 H3'	-3.925	52.799	1.433	 H	1	SAM1	0.000	
45	 H3'	-5.100	54.445	0.360	 H	1	SAM1	0.000	
46	 H4'	-3.260	52.265	-1.152	 H	1	SAM1	0.000	
47	 H61	-8.553	45.355	-0.424	 H	1	SAM1	0.000	
48	 H62	-9.309	45.081	-1.978	 H	1	SAM1	0.000	
49	H5'1	-2.490	50.348	1.079	 H	1	SAM1	0.000	
50	H5'2	-1.885	50.242	-0.591	 H	1	SAM1	0.000	
@<TRIPOS>BOND
1 1 2 1
2 1 36 1
3 1 37 1
4 1 39 1
5 2 3 1
6 2 5 1
7 2 28 1
8 3 4 1
9 3 17 2
10 5 6 1
11 5 29 1
12 5 30 1
13 6 7 1
14 6 31 1
15 6 32 1
16 7 8 1
17 7 9 1
18 8 33 1
19 8 34 1
20 8 35 1
21 9 10 1
22 9 49 1
23 9 50 1
24 10 11 1
25 10 12 1
26 10 46 1
27 11 16 1
28 12 13 1
29 12 14 1
30 12 44 1
31 13 45 1
32 14 15 1
33 14 16 1
34 14 42 1
35 15 43 1
36 16 27 1
37 16 41 1
38 18 19 ar
39 18 23 ar
40 19 20 ar
41 19 38 1
42 20 21 ar
43 21 22 ar
44 21 27 ar
45 22 23 ar
46 22 25 ar
47 23 24 1
48 24 47 1
49 24 48 1
50 25 26 ar
51 26 27 ar
52 26 40 1
@<TRIPOS>SUBSTRUCTURE
1	SAM1	1	GROUP	1 A	SAM
