# created with PyMOL 2.5.0
@<TRIPOS>MOLECULE
5TTG
25 27 1                 
SMALL
USER_CHARGES
@<TRIPOS>ATOM
1	   N	-2.730	-17.150	-4.818	N.pl3	1	7KZ1302	0.000	
2	   O	3.302	-21.398	-2.874	O.3	1	7KZ1302	0.000	
3	  N1	-2.242	-18.899	-3.437	N.2	1	7KZ1302	0.000	
4	  O1	3.906	-19.779	-4.782	O.3	1	7KZ1302	0.000	
5	  N2	-1.857	-20.580	-1.953	N.pl3	1	7KZ1302	0.000	
6	  N3	-5.142	-22.260	0.088	N.3	1	7KZ1302	0.000	
7	  C4	-2.112	-14.797	-5.094	C.3	1	7KZ1302	0.000	
8	  N4	-0.566	-17.974	-4.882	N.2	1	7KZ1302	0.000	
9	  C5	-2.573	-16.069	-5.775	C.3	1	7KZ1302	0.000	
10	  C6	-1.818	-18.043	-4.375	C.2	1	7KZ1302	0.000	
11	  C7	-1.380	-19.753	-2.899	C.2	1	7KZ1302	0.000	
12	  C8	-3.219	-20.702	-1.436	C.3	1	7KZ1302	0.000	
13	  C9	-3.222	-20.716	0.083	C.3	1	7KZ1302	0.000	
14	 C10	-4.629	-20.995	0.608	C.3	1	7KZ1302	0.000	
15	 C11	-6.469	-22.575	0.675	C.3	1	7KZ1302	0.000	
16	 C12	-5.230	-22.186	-1.367	C.3	1	7KZ1302	0.000	
17	 C13	-3.854	-21.965	-1.989	C.3	1	7KZ1302	0.000	
18	 C14	-0.001	-19.776	-3.327	C.2	1	7KZ1302	0.000	
19	 C15	0.999	-20.638	-2.812	C.2	1	7KZ1302	0.000	
20	 C16	2.271	-20.606	-3.307	C.2	1	7KZ1302	0.000	
21	 C17	3.022	-22.403	-1.897	C.3	1	7KZ1302	0.000	
22	 C18	2.608	-19.700	-4.348	C.2	1	7KZ1302	0.000	
23	 C19	4.363	-18.810	-5.732	C.3	1	7KZ1302	0.000	
24	 C20	1.665	-18.851	-4.855	C.2	1	7KZ1302	0.000	
25	 C21	0.343	-18.858	-4.351	C.2	1	7KZ1302	0.000	
@<TRIPOS>BOND
1 1 9 1
2 1 10 1
3 2 20 1
4 2 21 1
5 3 10 ar
6 3 11 ar
7 4 22 1
8 4 23 1
9 5 11 1
10 5 12 1
11 6 14 1
12 6 15 1
13 6 16 1
14 7 9 1
15 8 10 ar
16 8 25 ar
17 11 18 ar
18 12 13 1
19 12 17 1
20 13 14 1
21 16 17 1
22 18 19 ar
23 18 25 ar
24 19 20 ar
25 20 22 ar
26 22 24 ar
27 24 25 ar
@<TRIPOS>SUBSTRUCTURE
1	7KZ1302	1	GROUP	1 A	7KZ
