# created with PyMOL 2.5.2
@<TRIPOS>MOLECULE
7KZ
29 31 1                 
SMALL
USER_CHARGES
@<TRIPOS>ATOM
1	  C4	-3.820	-15.702	-6.364	C.3	1	7KZ0	0.000	
2	  C5	-2.560	-16.466	-5.953	C.3	1	7KZ0	0.000	
3	  C6	-1.891	-18.185	-4.315	C.2	1	7KZ0	0.000	
4	  N1	-2.211	-19.006	-3.319	N.2	1	7KZ0	0.000	
5	  C7	-1.310	-19.803	-2.763	C.2	1	7KZ0	0.000	
6	  C8	-3.034	-20.677	-1.237	C.3	1	7KZ0	0.000	
7	  N2	-1.655	-20.651	-1.731	N.pl3	1	7KZ0	0.000	
8	  C9	-3.049	-21.166	0.215	C.3	1	7KZ0	0.000	
9	 C10	-4.496	-21.248	0.706	C.3	1	7KZ0	0.000	
10	 C11	-6.608	-22.384	0.377	C.3	1	7KZ0	0.000	
11	 C12	-5.292	-21.702	-1.538	C.3	1	7KZ0	0.000	
12	  N3	-5.252	-22.173	-0.148	N.3	1	7KZ0	0.000	
13	 C13	-3.869	-21.632	-2.096	C.3	1	7KZ0	0.000	
14	 C14	0.018	-19.763	-3.254	C.2	1	7KZ0	0.000	
15	 C15	1.028	-20.574	-2.721	C.2	1	7KZ0	0.000	
16	  N4	-0.671	-18.107	-4.811	N.2	1	7KZ0	0.000	
17	 C19	4.104	-18.651	-5.837	C.3	1	7KZ0	0.000	
18	  O1	3.861	-19.567	-4.767	O.3	1	7KZ0	0.000	
19	 C18	2.594	-19.622	-4.279	C.2	1	7KZ0	0.000	
20	 C16	2.294	-20.500	-3.229	C.2	1	7KZ0	0.000	
21	   O	3.274	-21.287	-2.710	O.3	1	7KZ0	0.000	
22	 C17	2.905	-22.162	-1.641	C.3	1	7KZ0	0.000	
23	 C20	1.619	-18.814	-4.820	C.2	1	7KZ0	0.000	
24	 C21	0.314	-18.873	-4.316	C.2	1	7KZ0	0.000	
25	   N	-2.880	-17.382	-4.856	N.pl3	1	7KZ0	0.000	
26	  C1	-3.487	-14.745	-7.510	C.3	1	7KZ0	0.000	
27	  C2	-4.747	-13.981	-7.920	C.3	1	7KZ0	0.000	
28	  C3	-4.413	-13.024	-9.067	C.3	1	7KZ0	0.000	
29	 C22	-5.674	-12.260	-9.476	C.3	1	7KZ0	0.000	
@<TRIPOS>BOND
1 1 2 1
2 2 25 1
3 17 18 1
4 3 16 2
5 16 24 1
6 23 24 2
7 19 23 1
8 3 25 1
9 18 19 1
10 3 4 1
11 14 24 1
12 19 20 2
13 4 5 2
14 5 14 1
15 14 15 2
16 20 21 1
17 15 20 1
18 5 7 1
19 21 22 1
20 6 13 1
21 11 13 1
22 6 7 1
23 6 8 1
24 11 12 1
25 8 9 1
26 9 12 1
27 10 12 1
28 1 26 1
29 26 27 1
30 27 28 1
31 28 29 1
@<TRIPOS>SUBSTRUCTURE
1	7KZ0	1	GROUP	1 ****	7KZ
