@<TRIPOS>MOLECULE
7KZ.****
66 68 1 0 0 
SMALL
USER_CHARGES


@<TRIPOS>ATOM
  1 C4      -3.8200   -15.7020    -6.3640 C.3   1 Q7KZ0  -0.1600 
  2 H41     -4.1934   -15.1329    -5.5127 H     1 Q7KZ0   0.0800 
  3 H42     -4.5826   -16.4088    -6.6912 H     1 Q7KZ0   0.0800 
  4 C5      -2.5600   -16.4660    -5.9530 C.3   1 Q7KZ0   0.2091 
  5 H51     -1.7974   -15.7594    -5.6255 H     1 Q7KZ0   0.0800 
  6 H52     -2.1864   -17.0352    -6.8042 H     1 Q7KZ0   0.0800 
  7 C6      -1.8910   -18.1850    -4.3150 C.ar  1 Q7KZ0   0.7710 
  8 N1      -2.2110   -19.0060    -3.3190 N.ar  1 Q7KZ0  -0.6200 
  9 C7      -1.3100   -19.8030    -2.7630 C.ar  1 Q7KZ0   0.4100 
 10 C8      -3.0340   -20.6770    -1.2370 C.3   1 Q7KZ0   0.2891 
 11 H8      -3.4538   -19.6725    -1.2911 H     1 Q7KZ0   0.0800 
 12 N2      -1.6550   -20.6510    -1.7310 N.pl3 1 Q7KZ0  -0.8691 
 13 H2      -0.9579   -21.2530    -1.3166 H     1 Q7KZ0   0.4000 
 14 C9      -3.0490   -21.1660     0.2150 C.3   1 Q7KZ0  -0.1600 
 15 H91     -2.4914   -20.4684     0.8399 H     1 Q7KZ0   0.0800 
 16 H92     -2.5888   -22.1524     0.2718 H     1 Q7KZ0   0.0800 
 17 C10     -4.4960   -21.2480     0.7060 C.3   1 Q7KZ0   0.3430 
 18 H101    -4.9512   -20.2586     0.6617 H     1 Q7KZ0   0.0800 
 19 H102    -4.5106   -21.6089     1.7344 H     1 Q7KZ0   0.0800 
 20 C11     -6.6080   -22.3840     0.3770 C.3   1 Q7KZ0   0.2630 
 21 H111    -6.5482   -22.7326     1.4080 H     1 Q7KZ0   0.0800 
 22 H112    -7.1205   -23.1304    -0.2298 H     1 Q7KZ0   0.0800 
 23 H113    -7.1612   -21.4454     0.3423 H     1 Q7KZ0   0.0800 
 24 C12     -5.2920   -21.7020    -1.5380 C.3   1 Q7KZ0   0.3430 
 25 H121    -5.7446   -20.7110    -1.5726 H     1 Q7KZ0   0.0800 
 26 H122    -5.8838   -22.3929    -2.1385 H     1 Q7KZ0   0.0800 
 27 N3      -5.2520   -22.1730    -0.1480 N.4   1 Q7KZ0  -0.9590 
 28 H3      -4.7726   -23.0619    -0.1393 H     1 Q7KZ0   0.4500 
 29 C13     -3.8690   -21.6320    -2.0960 C.3   1 Q7KZ0  -0.1600 
 30 H131    -3.4210   -22.6255    -2.0762 H     1 Q7KZ0   0.0800 
 31 H132    -3.8981   -21.2670    -3.1227 H     1 Q7KZ0   0.0800 
 32 C14      0.0180   -19.7630    -3.2540 C.ar  1 Q7KZ0   0.0000 
 33 C15      1.0280   -20.5740    -2.7210 C.ar  1 Q7KZ0  -0.1500 
 34 H15      0.8069   -21.2547    -1.9122 H     1 Q7KZ0   0.1500 
 35 N4      -0.6710   -18.1070    -4.8110 N.ar  1 Q7KZ0  -0.1790 
 36 H4      -0.4769   -17.4670    -5.5678 H     1 Q7KZ0   0.4570 
 37 C19      4.1040   -18.6510    -5.8370 C.3   1 Q7KZ0   0.0400 
 38 H191     5.1519   -18.7064    -6.1318 H     1 Q7KZ0   0.0800 
 39 H192     3.8722   -17.6381    -5.5078 H     1 Q7KZ0   0.0800 
 40 H193     3.4732   -18.9100    -6.6873 H     1 Q7KZ0   0.0800 
 41 O1       3.8610   -19.5670    -4.7670 O.3   1 Q7KZ0  -0.3625 
 42 C18      2.5940   -19.6220    -4.2790 C.ar  1 Q7KZ0   0.0825 
 43 C16      2.2940   -20.5000    -3.2290 C.ar  1 Q7KZ0   0.0825 
 44 O        3.2740   -21.2870    -2.7100 O.3   1 Q7KZ0  -0.3625 
 45 C17      2.9050   -22.1620    -1.6410 C.3   1 Q7KZ0   0.0400 
 46 H171     3.7772   -22.7317    -1.3203 H     1 Q7KZ0   0.0800 
 47 H172     2.1294   -22.8471    -1.9834 H     1 Q7KZ0   0.0800 
 48 H173     2.5271   -21.5743    -0.8044 H     1 Q7KZ0   0.0800 
 49 C20      1.6190   -18.8140    -4.8200 C.ar  1 Q7KZ0  -0.1500 
 50 H20      1.8594   -18.1390    -5.6280 H     1 Q7KZ0   0.1500 
 51 C21      0.3140   -18.8730    -4.3160 C.ar  1 Q7KZ0   0.3610 
 52 N       -2.8800   -17.3820    -4.8560 N.pl3 1 Q7KZ0  -0.8691 
 53 H       -3.8220   -17.4277    -4.4944 H     1 Q7KZ0   0.4000 
 54 C1      -3.4870   -14.7450    -7.5100 C.3   1 Q7KZ0  -0.1600 
 55 H11     -3.1141   -15.3140    -8.3616 H     1 Q7KZ0   0.0800 
 56 H12     -2.7241   -14.0384    -7.1831 H     1 Q7KZ0   0.0800 
 57 C2      -4.7470   -13.9810    -7.9200 C.3   1 Q7KZ0  -0.1600 
 58 H21     -5.1198   -13.4116    -7.0686 H     1 Q7KZ0   0.0800 
 59 H22     -5.5101   -14.6874    -8.2468 H     1 Q7KZ0   0.0800 
 60 C3      -4.4130   -13.0240    -9.0670 C.3   1 Q7KZ0  -0.1600 
 61 H31     -4.0406   -13.5933    -9.9187 H     1 Q7KZ0   0.0800 
 62 H32     -3.6498   -12.3176    -8.7405 H     1 Q7KZ0   0.0800 
 63 C22     -5.6740   -12.2600    -9.4760 C.3   1 Q7KZ0  -0.2400 
 64 H221    -6.4370   -12.9666    -9.8025 H     1 Q7KZ0   0.0800 
 65 H222    -5.4369   -11.5782   -10.2927 H     1 Q7KZ0   0.0800 
 66 H223    -6.0464   -11.6909    -8.6242 H     1 Q7KZ0   0.0800 
@<TRIPOS>BOND
  1   1   2  1   
  2   1   3  1   
  3   1   4  1   
  4   1  54  1   
  5   4   5  1   
  6   4   6  1   
  7   4  52  1   
  8   7   8  ar  
  9   7  35  ar  
 10   7  52  1   
 11   8   9  ar  
 12   9  12  1   
 13   9  32  ar  
 14  10  11  1   
 15  10  12  1   
 16  10  14  1   
 17  10  29  1   
 18  12  13  1   
 19  14  15  1   
 20  14  16  1   
 21  14  17  1   
 22  17  18  1   
 23  17  19  1   
 24  17  27  1   
 25  20  21  1   
 26  20  22  1   
 27  20  23  1   
 28  20  27  1   
 29  24  25  1   
 30  24  26  1   
 31  24  27  1   
 32  24  29  1   
 33  27  28  1   
 34  29  30  1   
 35  29  31  1   
 36  32  33  ar  
 37  32  51  ar  
 38  33  34  1   
 39  33  43  ar  
 40  35  36  1   
 41  35  51  ar  
 42  37  38  1   
 43  37  39  1   
 44  37  40  1   
 45  37  41  1   
 46  41  42  1   
 47  42  43  ar  
 48  42  49  ar  
 49  43  44  1   
 50  44  45  1   
 51  45  46  1   
 52  45  47  1   
 53  45  48  1   
 54  49  50  1   
 55  49  51  ar  
 56  52  53  1   
 57  54  55  1   
 58  54  56  1   
 59  54  57  1   
 60  57  58  1   
 61  57  59  1   
 62  57  60  1   
 63  60  61  1   
 64  60  62  1   
 65  60  63  1   
 66  63  64  1   
 67  63  65  1   
 68  63  66  1   
@<TRIPOS>SUBSTRUCTURE
  1 Q7KZ0   8 GROUP 4 **** **** 0

# MOE 2022.02 (io_trps.svl 2020.11)
