@<TRIPOS>MOLECULE
5TTG.A
51 53 1 0 0 
SMALL
USER_CHARGES


@<TRIPOS>ATOM
  1 N       10.6060   -31.7970    -6.3760 N.4   1 SAM  -0.8530 
  2 H1      11.1901   -32.2303    -7.0768 H     1 SAM   0.4500 
  3 H2      10.5493   -32.3981    -5.5663 H     1 SAM   0.4500 
  4 H3      11.0044   -30.9083    -6.1083 H     1 SAM   0.4500 
  5 CA       9.2660   -31.5860    -6.9210 C.3   1 SAM   0.3170 
  6 HA       8.6524   -31.1185    -6.1509 H     1 SAM   0.0800 
  7 C        8.6390   -32.9140    -7.2890 C.2   1 SAM   0.9060 
  8 O        9.2650   -33.9840    -7.0500 O.co2 1 SAM  -0.9000 
  9 CB       9.2880   -30.6190    -8.1200 C.3   1 SAM  -0.1600 
 10 HB1      8.4482   -30.8517    -8.7748 H     1 SAM   0.0800 
 11 HB2     10.2222   -30.7556    -8.6648 H     1 SAM   0.0800 
 12 CG       9.1810   -29.1480    -7.6790 C.3   1 SAM  -0.1525 
 13 HG1      9.3941   -28.5204    -8.5443 H     1 SAM   0.0800 
 14 HG2      9.9317   -28.9717    -6.9087 H     1 SAM   0.0800 
 15 SD       7.6770   -28.6890    -7.0580 S.3   1 SAM   0.9775 
 16 CE       7.1280   -27.4330    -7.9870 C.3   1 SAM  -0.2325 
 17 HE1      6.9621   -27.7807    -9.0067 H     1 SAM   0.0800 
 18 HE2      7.8690   -26.6336    -7.9917 H     1 SAM   0.0800 
 19 HE3      6.1915   -27.0579    -7.5742 H     1 SAM   0.0800 
 20 C5'      7.8710   -27.9740    -5.5520 C.3   1 SAM  -0.1525 
 21 H5'1     6.9693   -27.3984    -5.3427 H     1 SAM   0.0800 
 22 H5'2     8.7255   -27.3003    -5.6155 H     1 SAM   0.0800 
 23 C4'      8.1080   -28.9100    -4.3630 C.3   1 SAM   0.2000 
 24 H4'      7.2981   -29.6350    -4.4443 H     1 SAM   0.0800 
 25 O4'      9.3890   -29.5590    -4.3850 O.3   1 SAM  -0.5600 
 26 C3'      8.1080   -28.1470    -3.0440 C.3   1 SAM   0.2000 
 27 H3'      8.5137   -27.1398    -3.1392 H     1 SAM   0.0800 
 28 O3'      6.7970   -27.8700    -2.5150 O.3   1 SAM  -0.6800 
 29 H3'      6.9121   -27.4122    -1.6791 H     1 SAM   0.4000 
 30 C2'      8.9310   -29.0610    -2.1580 C.3   1 SAM   0.2000 
 31 H2'      9.2667   -28.5834    -1.2375 H     1 SAM   0.0800 
 32 O2'      8.1760   -30.2090    -1.7890 O.3   1 SAM  -0.6800 
 33 H2'      7.4337   -29.9101    -1.2586 H     1 SAM   0.4000 
 34 C1'     10.0300   -29.4950    -3.0970 C.3   1 SAM   0.5691 
 35 H1'     10.4756   -30.4401    -2.7867 H     1 SAM   0.0800 
 36 OXT      7.4880   -32.8890    -7.8190 O.co2 1 SAM  -0.9000 
 37 N1      13.9330   -27.2580    -0.4490 N.2   1 SAM  -0.6610 
 38 C2      13.0450   -28.1930    -0.0570 C.2   1 SAM   0.6010 
 39 H2      13.1074   -28.5579     0.9576 H     1 SAM   0.0600 
 40 N3      12.0790   -28.7030    -0.8580 N.2   1 SAM  -0.6610 
 41 C4      11.9580   -28.2360    -2.1320 C.2   1 SAM   0.5000 
 42 C5      12.8740   -27.2130    -2.6360 C.2   1 SAM   0.4500 
 43 C6      13.9070   -26.7280    -1.7070 C.2   1 SAM   0.6110 
 44 N6      14.7860   -25.7990    -2.0970 N.2   1 SAM  -0.2000 
 45 H62     15.4924   -25.4707    -1.4541 H     1 SAM   0.4000 
 46 H61     14.7436   -25.4256    -3.0345 H     1 SAM   0.4000 
 47 N7      12.5290   -26.9420    -3.9170 N.2   1 SAM  -0.6960 
 48 C8      11.4800   -27.7350    -4.1950 C.3   1 SAM   0.4551 
 49 H81     11.7409   -28.3834    -5.0315 H     1 SAM   0.0800 
 50 H82     10.6301   -27.1106    -4.4706 H     1 SAM   0.0800 
 51 N9      11.1320   -28.5050    -3.1370 N.pl3 1 SAM  -0.7882 
@<TRIPOS>BOND
  1   1   2  1   
  2   1   3  1   
  3   1   4  1   
  4   1   5  1   
  5   5   6  1   
  6   5   7  1   
  7   5   9  1   
  8   7   8  ar  
  9   7  36  ar  
 10   9  10  1   
 11   9  11  1   
 12   9  12  1   
 13  12  13  1   
 14  12  14  1   
 15  12  15  1   
 16  15  16  1   
 17  15  20  1   
 18  16  17  1   
 19  16  18  1   
 20  16  19  1   
 21  20  21  1   
 22  20  22  1   
 23  20  23  1   
 24  23  24  1   
 25  23  25  1   
 26  23  26  1   
 27  25  34  1   
 28  26  27  1   
 29  26  28  1   
 30  26  30  1   
 31  28  29  1   
 32  30  31  1   
 33  30  32  1   
 34  30  34  1   
 35  32  33  1   
 36  34  35  1   
 37  34  51  1   
 38  37  38  2   
 39  37  43  1   
 40  38  39  1   
 41  38  40  1   
 42  40  41  2   
 43  41  42  1   
 44  41  51  1   
 45  42  43  1   
 46  42  47  2   
 47  43  44  2   
 48  44  45  1   
 49  44  46  1   
 50  47  48  1   
 51  48  49  1   
 52  48  50  1   
 53  48  51  1   
@<TRIPOS>SUBSTRUCTURE
  1 SAM  25 GROUP 4 A **** 0

# MOE 2022.02 (io_trps.svl 2020.11)
