# created with PyMOL 2.4.0
@<TRIPOS>MOLECULE
temp
50 52 1                 
SMALL
USER_CHARGES
@<TRIPOS>ATOM
1	   N	10.606	-31.797	-6.376	N.4	1	SAM1	0.000	
2	  CA	9.266	-31.586	-6.921	C.3	1	SAM1	0.000	
3	   C	8.639	-32.914	-7.289	C.2	1	SAM1	0.000	
4	   O	9.265	-33.984	-7.050	O.co2	1	SAM1	0.000	
5	  CB	9.288	-30.619	-8.120	C.3	1	SAM1	0.000	
6	  CG	9.181	-29.148	-7.679	C.3	1	SAM1	0.000	
7	  SD	7.677	-28.689	-7.058	S.3	1	SAM1	0.000	
8	  CE	7.128	-27.433	-7.987	C.3	1	SAM1	0.000	
9	 C5'	7.871	-27.974	-5.552	C.3	1	SAM1	0.000	
10	 C4'	8.108	-28.910	-4.363	C.3	1	SAM1	0.000	
11	 O4'	9.389	-29.559	-4.385	O.3	1	SAM1	0.000	
12	 C3'	8.108	-28.147	-3.044	C.3	1	SAM1	0.000	
13	 O3'	6.797	-27.870	-2.515	O.3	1	SAM1	0.000	
14	 C2'	8.931	-29.061	-2.158	C.3	1	SAM1	0.000	
15	 O2'	8.176	-30.209	-1.789	O.3	1	SAM1	0.000	
16	 C1'	10.030	-29.495	-3.097	C.3	1	SAM1	0.000	
17	 OXT	7.488	-32.889	-7.819	O.co2	1	SAM1	0.000	
18	  N1	13.933	-27.258	-0.449	N.2	1	SAM1	0.000	
19	  C2	13.045	-28.193	-0.057	C.2	1	SAM1	0.000	
20	  N3	12.079	-28.703	-0.858	N.2	1	SAM1	0.000	
21	  C4	11.958	-28.236	-2.132	C.2	1	SAM1	0.000	
22	  C5	12.874	-27.213	-2.636	C.2	1	SAM1	0.000	
23	  C6	13.907	-26.728	-1.707	C.2	1	SAM1	0.000	
24	  N6	14.786	-25.799	-2.097	N.pl3	1	SAM1	0.000	
25	  N7	12.529	-26.942	-3.917	N.2	1	SAM1	0.000	
26	  C8	11.480	-27.735	-4.195	C.2	1	SAM1	0.000	
27	  N9	11.132	-28.505	-3.137	N.2	1	SAM1	0.000	
28	  HA	8.652	-31.118	-6.151	 H	1	SAM1	0.000	
29	 HB1	8.448	-30.852	-8.775	 H	1	SAM1	0.000	
30	 HB2	10.222	-30.756	-8.665	 H	1	SAM1	0.000	
31	 HG1	9.394	-28.520	-8.544	 H	1	SAM1	0.000	
32	 HG2	9.932	-28.972	-6.909	 H	1	SAM1	0.000	
33	 HE1	6.962	-27.781	-9.007	 H	1	SAM1	0.000	
34	 HE2	7.869	-26.634	-7.992	 H	1	SAM1	0.000	
35	 HE3	6.192	-27.058	-7.574	 H	1	SAM1	0.000	
36	  H1	11.190	-32.230	-7.077	 H	1	SAM1	0.000	
37	  H2	10.549	-32.398	-5.566	 H	1	SAM1	0.000	
38	  H2	13.107	-28.558	0.958	 H	1	SAM1	0.000	
39	  H3	11.004	-30.908	-6.108	 H	1	SAM1	0.000	
40	  H8	10.975	-27.756	-5.149	 H	1	SAM1	0.000	
41	 H1'	10.476	-30.440	-2.787	 H	1	SAM1	0.000	
42	 H2'	9.267	-28.583	-1.237	 H	1	SAM1	0.000	
43	 H2'	7.434	-29.910	-1.259	 H	1	SAM1	0.000	
44	 H3'	8.514	-27.140	-3.139	 H	1	SAM1	0.000	
45	 H3'	6.912	-27.412	-1.679	 H	1	SAM1	0.000	
46	 H4'	7.298	-29.635	-4.444	 H	1	SAM1	0.000	
47	 H61	14.744	-25.426	-3.034	 H	1	SAM1	0.000	
48	 H62	15.492	-25.471	-1.454	 H	1	SAM1	0.000	
49	H5'1	6.969	-27.398	-5.343	 H	1	SAM1	0.000	
50	H5'2	8.726	-27.300	-5.615	 H	1	SAM1	0.000	
@<TRIPOS>BOND
1 1 2 1
2 1 36 1
3 1 37 1
4 1 39 1
5 2 3 1
6 2 5 1
7 2 28 1
8 3 4 ar
9 3 17 ar
10 5 6 1
11 5 29 1
12 5 30 1
13 6 7 1
14 6 31 1
15 6 32 1
16 7 8 1
17 7 9 1
18 8 33 1
19 8 34 1
20 8 35 1
21 9 10 1
22 9 49 1
23 9 50 1
24 10 11 1
25 10 12 1
26 10 46 1
27 11 16 1
28 12 13 1
29 12 14 1
30 12 44 1
31 13 45 1
32 14 15 1
33 14 16 1
34 14 42 1
35 15 43 1
36 16 27 1
37 16 41 1
38 18 19 ar
39 18 23 ar
40 19 20 ar
41 19 38 1
42 20 21 ar
43 21 22 ar
44 21 27 ar
45 22 23 ar
46 22 25 ar
47 23 24 1
48 24 47 1
49 24 48 1
50 25 26 ar
51 26 27 ar
52 26 40 1
@<TRIPOS>SUBSTRUCTURE
1	SAM1	1	GROUP	1 A	SAM
