# created with PyMOL 2.5.0
@<TRIPOS>MOLECULE
5TTG
27 29 1                 
SMALL
USER_CHARGES
@<TRIPOS>ATOM
1	   N	10.606	-31.797	-6.376	N.3	1	SAM1301	0.000	
2	  CA	9.266	-31.586	-6.921	C.3	1	SAM1301	0.000	
3	   C	8.639	-32.914	-7.289	C.2	1	SAM1301	0.000	
4	   O	9.265	-33.984	-7.050	O.co2	1	SAM1301	0.000	
5	  CB	9.288	-30.619	-8.120	C.3	1	SAM1301	0.000	
6	  CG	9.181	-29.148	-7.679	C.3	1	SAM1301	0.000	
7	  SD	7.677	-28.689	-7.058	S.3	1	SAM1301	0.000	
8	  CE	7.128	-27.433	-7.987	C.3	1	SAM1301	0.000	
9	 C5'	7.871	-27.974	-5.552	C.3	1	SAM1301	0.000	
10	 C4'	8.108	-28.910	-4.363	C.3	1	SAM1301	0.000	
11	 O4'	9.389	-29.559	-4.385	O.3	1	SAM1301	0.000	
12	 C3'	8.108	-28.147	-3.044	C.3	1	SAM1301	0.000	
13	 O3'	6.797	-27.870	-2.515	O.3	1	SAM1301	0.000	
14	 C2'	8.931	-29.061	-2.158	C.3	1	SAM1301	0.000	
15	 O2'	8.176	-30.209	-1.789	O.3	1	SAM1301	0.000	
16	 C1'	10.030	-29.495	-3.097	C.3	1	SAM1301	0.000	
17	 OXT	7.488	-32.889	-7.819	O.co2	1	SAM1301	0.000	
18	  N1	13.933	-27.258	-0.449	N.2	1	SAM1301	0.000	
19	  C2	13.045	-28.193	-0.057	C.2	1	SAM1301	0.000	
20	  N3	12.079	-28.703	-0.858	N.2	1	SAM1301	0.000	
21	  C4	11.958	-28.236	-2.132	C.2	1	SAM1301	0.000	
22	  C5	12.874	-27.213	-2.636	C.2	1	SAM1301	0.000	
23	  C6	13.907	-26.728	-1.707	C.2	1	SAM1301	0.000	
24	  N6	14.786	-25.799	-2.097	N.pl3	1	SAM1301	0.000	
25	  N7	12.529	-26.942	-3.917	N.2	1	SAM1301	0.000	
26	  C8	11.480	-27.735	-4.195	C.2	1	SAM1301	0.000	
27	  N9	11.132	-28.505	-3.137	N.2	1	SAM1301	0.000	
@<TRIPOS>BOND
1 1 2 1
2 2 3 1
3 2 5 1
4 3 4 ar
5 3 17 ar
6 5 6 1
7 6 7 1
8 7 8 1
9 7 9 1
10 9 10 1
11 10 11 1
12 10 12 1
13 11 16 1
14 12 13 1
15 12 14 1
16 14 15 1
17 14 16 1
18 16 27 1
19 18 19 ar
20 18 23 ar
21 19 20 ar
22 20 21 ar
23 21 22 ar
24 21 27 ar
25 22 23 ar
26 22 25 ar
27 23 24 1
28 25 26 ar
29 26 27 ar
@<TRIPOS>SUBSTRUCTURE
1	SAM1301	1	GROUP	1 A	SAM
