# created with PyMOL 2.4.0
@<TRIPOS>MOLECULE
temp
50 52 1                 
SMALL
USER_CHARGES
@<TRIPOS>ATOM
1	   N	80.765	18.666	-0.958	N.4	1	SAM1	0.000	
2	  CA	79.381	18.217	-0.653	C.3	1	SAM1	0.000	
3	   C	78.382	19.137	-1.376	C.2	1	SAM1	0.000	
4	   O	78.728	19.568	-2.502	O.co2	1	SAM1	0.000	
5	  CB	79.148	18.200	0.864	C.3	1	SAM1	0.000	
6	  CG	80.147	17.288	1.591	C.3	1	SAM1	0.000	
7	  SD	79.788	17.039	3.346	S.3	1	SAM1	0.000	
8	  CE	80.182	18.646	4.019	C.3	1	SAM1	0.000	
9	 C5'	81.261	16.068	3.810	C.3	1	SAM1	0.000	
10	 C4'	81.340	14.695	3.164	C.3	1	SAM1	0.000	
11	 O4'	82.585	14.048	3.519	O.3	1	SAM1	0.000	
12	 C3'	80.236	13.714	3.577	C.3	1	SAM1	0.000	
13	 O3'	79.429	13.402	2.449	O.3	1	SAM1	0.000	
14	 C2'	80.995	12.489	4.113	C.3	1	SAM1	0.000	
15	 O2'	80.398	11.263	3.747	O.3	1	SAM1	0.000	
16	 C1'	82.362	12.660	3.461	C.3	1	SAM1	0.000	
17	 OXT	77.286	19.359	-0.823	O.co2	1	SAM1	0.000	
18	  N1	86.140	9.156	3.003	N.2	1	SAM1	0.000	
19	  C2	85.285	9.677	2.114	C.2	1	SAM1	0.000	
20	  N3	84.330	10.586	2.294	N.2	1	SAM1	0.000	
21	  C4	84.291	11.001	3.572	C.2	1	SAM1	0.000	
22	  C5	85.109	10.564	4.597	C.2	1	SAM1	0.000	
23	  C6	86.083	9.592	4.283	C.2	1	SAM1	0.000	
24	  N6	86.928	9.069	5.170	N.pl3	1	SAM1	0.000	
25	  N7	84.779	11.207	5.780	N.2	1	SAM1	0.000	
26	  C8	83.785	11.997	5.457	C.2	1	SAM1	0.000	
27	  N9	83.442	11.933	4.130	N.2	1	SAM1	0.000	
28	  HA	79.232	17.199	-1.012	 H	1	SAM1	0.000	
29	 HB1	78.137	17.842	1.061	 H	1	SAM1	0.000	
30	 HB2	79.255	19.215	1.247	 H	1	SAM1	0.000	
31	 HG1	81.139	17.732	1.505	 H	1	SAM1	0.000	
32	 HG2	80.141	16.315	1.100	 H	1	SAM1	0.000	
33	 HE1	79.367	19.338	3.808	 H	1	SAM1	0.000	
34	 HE2	81.100	19.016	3.563	 H	1	SAM1	0.000	
35	 HE3	80.319	18.565	5.097	 H	1	SAM1	0.000	
36	  H1	80.894	19.610	-0.622	 H	1	SAM1	0.000	
37	  H2	80.915	18.640	-1.957	 H	1	SAM1	0.000	
38	  H2	85.385	9.306	1.105	 H	1	SAM1	0.000	
39	  H3	81.426	18.053	-0.502	 H	1	SAM1	0.000	
40	  H8	83.283	12.637	6.167	 H	1	SAM1	0.000	
41	 H1'	82.363	12.248	2.452	 H	1	SAM1	0.000	
42	 H2'	81.016	12.446	5.202	 H	1	SAM1	0.000	
43	 H2'	79.523	11.237	4.140	 H	1	SAM1	0.000	
44	 H3'	79.555	14.111	4.330	 H	1	SAM1	0.000	
45	 H3'	78.780	12.752	2.727	 H	1	SAM1	0.000	
46	 H4'	81.240	14.903	2.099	 H	1	SAM1	0.000	
47	 H61	86.895	9.366	6.135	 H	1	SAM1	0.000	
48	 H62	87.602	8.376	4.878	 H	1	SAM1	0.000	
49	H5'1	81.254	15.935	4.892	 H	1	SAM1	0.000	
50	H5'2	82.147	16.633	3.519	 H	1	SAM1	0.000	
@<TRIPOS>BOND
1 1 2 1
2 1 36 1
3 1 37 1
4 1 39 1
5 2 3 1
6 2 5 1
7 2 28 1
8 3 4 ar
9 3 17 ar
10 5 6 1
11 5 29 1
12 5 30 1
13 6 7 1
14 6 31 1
15 6 32 1
16 7 8 1
17 7 9 1
18 8 33 1
19 8 34 1
20 8 35 1
21 9 10 1
22 9 49 1
23 9 50 1
24 10 11 1
25 10 12 1
26 10 46 1
27 11 16 1
28 12 13 1
29 12 14 1
30 12 44 1
31 13 45 1
32 14 15 1
33 14 16 1
34 14 42 1
35 15 43 1
36 16 27 1
37 16 41 1
38 18 19 ar
39 18 23 ar
40 19 20 ar
41 19 38 1
42 20 21 ar
43 21 22 ar
44 21 27 ar
45 22 23 ar
46 22 25 ar
47 23 24 1
48 24 47 1
49 24 48 1
50 25 26 ar
51 26 27 ar
52 26 40 1
@<TRIPOS>SUBSTRUCTURE
1	SAM1	1	GROUP	1 A	SAM
