@<TRIPOS>MOLECULE
6W75.A
51 53 1 0 0 
SMALL
USER_CHARGES


@<TRIPOS>ATOM
  1 N       80.7650    18.6660    -0.9580 N.4   1 SAM  -0.8530 
  2 H1      80.8944    19.6098    -0.6224 H     1 SAM   0.4500 
  3 H2      80.9150    18.6402    -1.9565 H     1 SAM   0.4500 
  4 H3      81.4259    18.0531    -0.5023 H     1 SAM   0.4500 
  5 CA      79.3810    18.2170    -0.6530 C.3   1 SAM   0.3170 
  6 HA      79.2322    17.1986    -1.0119 H     1 SAM   0.0800 
  7 C       78.3820    19.1370    -1.3760 C.2   1 SAM   0.9060 
  8 O       78.7280    19.5680    -2.5020 O.co2 1 SAM  -0.9000 
  9 CB      79.1480    18.2000     0.8640 C.3   1 SAM  -0.1600 
 10 HB1     78.1375    17.8418     1.0605 H     1 SAM   0.0800 
 11 HB2     79.2548    19.2147     1.2475 H     1 SAM   0.0800 
 12 CG      80.1470    17.2880     1.5910 C.3   1 SAM  -0.1525 
 13 HG1     81.1389    17.7316     1.5052 H     1 SAM   0.0800 
 14 HG2     80.1405    16.3149     1.1000 H     1 SAM   0.0800 
 15 SD      79.7880    17.0390     3.3460 S.3   1 SAM   0.9775 
 16 CE      80.1820    18.6460     4.0190 C.3   1 SAM  -0.2325 
 17 HE1     79.3669    19.3381     3.8078 H     1 SAM   0.0800 
 18 HE2     81.1002    19.0159     3.5627 H     1 SAM   0.0800 
 19 HE3     80.3194    18.5646     5.0972 H     1 SAM   0.0800 
 20 C5'     81.2610    16.0680     3.8100 C.3   1 SAM  -0.1525 
 21 H5'1    81.2543    15.9353     4.8919 H     1 SAM   0.0800 
 22 H5'2    82.1466    16.6327     3.5187 H     1 SAM   0.0800 
 23 C4'     81.3400    14.6950     3.1640 C.3   1 SAM   0.2000 
 24 H4'     81.2399    14.9026     2.0986 H     1 SAM   0.0800 
 25 O4'     82.5850    14.0480     3.5190 O.3   1 SAM  -0.5600 
 26 C3'     80.2360    13.7140     3.5770 C.3   1 SAM   0.2000 
 27 H3'     79.5551    14.1109     4.3299 H     1 SAM   0.0800 
 28 O3'     79.4290    13.4020     2.4490 O.3   1 SAM  -0.6800 
 29 H3'     78.7801    12.7516     2.7273 H     1 SAM   0.4000 
 30 C2'     80.9950    12.4890     4.1130 C.3   1 SAM   0.2000 
 31 H2'     81.0156    12.4463     5.2020 H     1 SAM   0.0800 
 32 O2'     80.3980    11.2630     3.7470 O.3   1 SAM  -0.6800 
 33 H2'     80.3502    11.2381     2.7885 H     1 SAM   0.4000 
 34 C1'     82.3620    12.6600     3.4610 C.3   1 SAM   0.5691 
 35 H1'     82.3626    12.2484     2.4517 H     1 SAM   0.0800 
 36 OXT     77.2860    19.3590    -0.8230 O.co2 1 SAM  -0.9000 
 37 N1      86.1400     9.1560     3.0030 N.2   1 SAM  -0.6610 
 38 C2      85.2850     9.6770     2.1140 C.2   1 SAM   0.6010 
 39 H2      85.3849     9.3057     1.1048 H     1 SAM   0.0600 
 40 N3      84.3300    10.5860     2.2940 N.2   1 SAM  -0.6610 
 41 C4      84.2910    11.0010     3.5720 C.2   1 SAM   0.5000 
 42 C5      85.1090    10.5640     4.5970 C.2   1 SAM   0.4500 
 43 C6      86.0830     9.5920     4.2830 C.2   1 SAM   0.6110 
 44 N6      86.9280     9.0690     5.1700 N.2   1 SAM  -0.2000 
 45 H62     87.6019     8.3758     4.8777 H     1 SAM   0.4000 
 46 H61     86.8948     9.3657     6.1349 H     1 SAM   0.4000 
 47 N7      84.7790    11.2070     5.7800 N.2   1 SAM  -0.6960 
 48 C8      83.7850    11.9970     5.4570 C.3   1 SAM   0.4551 
 49 H81     84.0702    13.0229     5.6902 H     1 SAM   0.0800 
 50 H82     82.9153    11.7175     6.0517 H     1 SAM   0.0800 
 51 N9      83.4420    11.9330     4.1300 N.pl3 1 SAM  -0.7882 
@<TRIPOS>BOND
  1   1   2  1   
  2   1   3  1   
  3   1   4  1   
  4   1   5  1   
  5   5   6  1   
  6   5   7  1   
  7   5   9  1   
  8   7   8  ar  
  9   7  36  ar  
 10   9  10  1   
 11   9  11  1   
 12   9  12  1   
 13  12  13  1   
 14  12  14  1   
 15  12  15  1   
 16  15  16  1   
 17  15  20  1   
 18  16  17  1   
 19  16  18  1   
 20  16  19  1   
 21  20  21  1   
 22  20  22  1   
 23  20  23  1   
 24  23  24  1   
 25  23  25  1   
 26  23  26  1   
 27  25  34  1   
 28  26  27  1   
 29  26  28  1   
 30  26  30  1   
 31  28  29  1   
 32  30  31  1   
 33  30  32  1   
 34  30  34  1   
 35  32  33  1   
 36  34  35  1   
 37  34  51  1   
 38  37  38  2   
 39  37  43  1   
 40  38  39  1   
 41  38  40  1   
 42  40  41  2   
 43  41  42  1   
 44  41  51  1   
 45  42  43  1   
 46  42  47  2   
 47  43  44  2   
 48  44  45  1   
 49  44  46  1   
 50  47  48  1   
 51  48  49  1   
 52  48  50  1   
 53  48  51  1   
@<TRIPOS>SUBSTRUCTURE
  1 SAM  23 GROUP 4 A **** 0

# MOE 2022.02 (io_trps.svl 2020.11)
