# created with PyMOL 2.5.0
@<TRIPOS>MOLECULE
6W75
27 29 1                 
SMALL
USER_CHARGES
@<TRIPOS>ATOM
1	   N	80.765	18.666	-0.958	N.3	1	SAM7102	0.000	
2	  CA	79.381	18.217	-0.653	C.3	1	SAM7102	0.000	
3	   C	78.382	19.137	-1.376	C.2	1	SAM7102	0.000	
4	   O	78.728	19.568	-2.502	O.co2	1	SAM7102	0.000	
5	  CB	79.148	18.200	0.864	C.3	1	SAM7102	0.000	
6	  CG	80.147	17.288	1.591	C.3	1	SAM7102	0.000	
7	  SD	79.788	17.039	3.346	S.3	1	SAM7102	0.000	
8	  CE	80.182	18.646	4.019	C.3	1	SAM7102	0.000	
9	 C5'	81.261	16.068	3.810	C.3	1	SAM7102	0.000	
10	 C4'	81.340	14.695	3.164	C.3	1	SAM7102	0.000	
11	 O4'	82.585	14.048	3.519	O.3	1	SAM7102	0.000	
12	 C3'	80.236	13.714	3.577	C.3	1	SAM7102	0.000	
13	 O3'	79.429	13.402	2.449	O.3	1	SAM7102	0.000	
14	 C2'	80.995	12.489	4.113	C.3	1	SAM7102	0.000	
15	 O2'	80.398	11.263	3.747	O.3	1	SAM7102	0.000	
16	 C1'	82.362	12.660	3.461	C.3	1	SAM7102	0.000	
17	 OXT	77.286	19.359	-0.823	O.co2	1	SAM7102	0.000	
18	  N1	86.140	9.156	3.003	N.2	1	SAM7102	0.000	
19	  C2	85.285	9.677	2.114	C.2	1	SAM7102	0.000	
20	  N3	84.330	10.586	2.294	N.2	1	SAM7102	0.000	
21	  C4	84.291	11.001	3.572	C.2	1	SAM7102	0.000	
22	  C5	85.109	10.564	4.597	C.2	1	SAM7102	0.000	
23	  C6	86.083	9.592	4.283	C.2	1	SAM7102	0.000	
24	  N6	86.928	9.069	5.170	N.pl3	1	SAM7102	0.000	
25	  N7	84.779	11.207	5.780	N.2	1	SAM7102	0.000	
26	  C8	83.785	11.997	5.457	C.2	1	SAM7102	0.000	
27	  N9	83.442	11.933	4.130	N.2	1	SAM7102	0.000	
@<TRIPOS>BOND
1 1 2 1
2 2 3 1
3 2 5 1
4 3 4 ar
5 3 17 ar
6 5 6 1
7 6 7 1
8 7 8 1
9 7 9 1
10 9 10 1
11 10 11 1
12 10 12 1
13 11 16 1
14 12 13 1
15 12 14 1
16 14 15 1
17 14 16 1
18 16 27 1
19 18 19 ar
20 18 23 ar
21 19 20 ar
22 20 21 ar
23 21 22 ar
24 21 27 ar
25 22 23 ar
26 22 25 ar
27 23 24 1
28 25 26 ar
29 26 27 ar
@<TRIPOS>SUBSTRUCTURE
1	SAM7102	1	GROUP	1 A	SAM
