@<TRIPOS>MOLECULE
5CCL.A
35 37 1 0 0 
SMALL
USER_CHARGES


@<TRIPOS>ATOM
  1 O01     -3.2760    10.5530    33.7180 O.2   1 Q4ZW  -0.5700 
  2 C02     -3.5020     9.4280    34.1070 C.2   1 Q4ZW   0.6156 
  3 N03     -2.8760     8.7710    35.1660 N.am  1 Q4ZW  -0.7301 
  4 H03     -3.1878     7.8243    35.3291 H     1 Q4ZW   0.3700 
  5 C05     -1.8370     9.2480    36.0740 C.3   1 Q4ZW   0.2201 
  6 H05     -2.1757    10.2463    36.3509 H     1 Q4ZW   0.0800 
  7 C07     -0.4960     9.7260    35.6190 C.3   1 Q4ZW  -0.1600 
  8 H071    -0.6241    10.6398    35.0388 H     1 Q4ZW   0.0800 
  9 H072    -0.0405     8.9589    34.9928 H     1 Q4ZW   0.0800 
 10 C10      0.4300    10.0150    36.8040 C.3   1 Q4ZW   0.3430 
 11 H101     0.1120    10.9603    37.2438 H     1 Q4ZW   0.0800 
 12 H102     1.4411    10.1193    36.4103 H     1 Q4ZW   0.0800 
 13 N13      0.4790     9.0230    37.8830 N.4   1 Q4ZW  -0.9060 
 14 H131     0.9533     9.4404    38.6710 H     1 Q4ZW   0.4500 
 15 H132     1.0082     8.2281    37.5540 H     1 Q4ZW   0.4500 
 16 C15     -0.8170     8.5450    38.3380 C.3   1 Q4ZW   0.3430 
 17 H151    -1.2715     9.3150    38.9614 H     1 Q4ZW   0.0800 
 18 H152    -0.6658     7.6416    38.9288 H     1 Q4ZW   0.0800 
 19 C18     -1.7680     8.2230    37.1960 C.3   1 Q4ZW  -0.1600 
 20 H181    -1.4567     7.2733    36.7609 H     1 Q4ZW   0.0800 
 21 H182    -2.7689     8.1199    37.6150 H     1 Q4ZW   0.0800 
 22 C21     -4.6530     8.6650    33.5540 C.2   1 Q4ZW   0.0144 
 23 C22     -5.3390     9.1510    32.4400 C.2   1 Q4ZW  -0.1500 
 24 H22     -5.0323    10.0595    31.9431 H     1 Q4ZW   0.1500 
 25 C24     -6.4220     8.4250    32.0010 C.2   1 Q4ZW   0.0144 
 26 C25     -6.8610     7.3030    32.6790 C.2   1 Q4ZW   0.4212 
 27 N26     -7.9810     6.7730    32.0200 N.2   1 Q4ZW  -0.6610 
 28 C28     -8.3110     7.5630    30.8850 C.2   1 Q4ZW   0.7666 
 29 O29     -9.1280     7.4090    30.1110 O.2   1 Q4ZW  -0.5700 
 30 C30     -7.3040     8.7090    30.8060 C.2   1 Q4ZW  -0.1356 
 31 H30     -7.2391     9.5112    30.0859 H     1 Q4ZW   0.1500 
 32 C33     -6.2260     6.8110    33.8060 C.2   1 Q4ZW  -0.1356 
 33 H33     -6.5617     5.9134    34.3041 H     1 Q4ZW   0.1500 
 34 C35     -5.1280     7.5400    34.2620 C.2   1 Q4ZW  -0.1500 
 35 H35     -4.6324     7.2385    35.1729 H     1 Q4ZW   0.1500 
@<TRIPOS>BOND
  1   1   2  2   
  2   2   3  am  
  3   2  22  1   
  4   3   4  1   
  5   3   5  1   
  6   5   6  1   
  7   5   7  1   
  8   5  19  1   
  9   7   8  1   
 10   7   9  1   
 11   7  10  1   
 12  10  11  1   
 13  10  12  1   
 14  10  13  1   
 15  13  14  1   
 16  13  15  1   
 17  13  16  1   
 18  16  17  1   
 19  16  18  1   
 20  16  19  1   
 21  19  20  1   
 22  19  21  1   
 23  22  23  2   
 24  22  34  1   
 25  23  24  1   
 26  23  25  1   
 27  25  26  1   
 28  25  30  2   
 29  26  27  2   
 30  26  32  1   
 31  27  28  1   
 32  28  29  2   
 33  28  30  1   
 34  30  31  1   
 35  32  33  1   
 36  32  34  2   
 37  34  35  1   
@<TRIPOS>SUBSTRUCTURE
  1 Q4ZW  22 GROUP 4 A **** 0

# MOE 2022.02 (io_trps.svl 2020.11)
