@<TRIPOS>MOLECULE
5CCL.A
35 37 1 0 0 
SMALL
USER_CHARGES


@<TRIPOS>ATOM
  1 O01     16.2170     4.5520    14.4640 O.2   1 Q4ZW  -0.5700 
  2 C02     16.2430     4.6490    15.7010 C.2   1 Q4ZW   0.6156 
  3 N03     17.1730     3.9350    16.3710 N.am  1 Q4ZW  -0.7301 
  4 H03     17.1562     3.9432    17.3808 H     1 Q4ZW   0.3700 
  5 C05     18.2170     3.1400    15.6830 C.3   1 Q4ZW   0.2201 
  6 H05     18.5332     3.6785    14.7896 H     1 Q4ZW   0.0800 
  7 C07     17.6640     1.8030    15.2500 C.3   1 Q4ZW  -0.1600 
  8 H071    16.8753     1.9616    14.5146 H     1 Q4ZW   0.0800 
  9 H072    17.2534     1.2862    16.1174 H     1 Q4ZW   0.0800 
 10 C10     18.7560     0.9550    14.6350 C.3   1 Q4ZW   0.3430 
 11 H101    19.0735     1.4148    13.6991 H     1 Q4ZW   0.0800 
 12 H102    18.3581    -0.0398    14.4345 H     1 Q4ZW   0.0800 
 13 N13     19.9210     0.8300    15.5210 N.4   1 Q4ZW  -0.9060 
 14 H131    20.6295     0.2899    15.0452 H     1 Q4ZW   0.4500 
 15 H132    19.6355     0.3458    16.3601 H     1 Q4ZW   0.4500 
 16 C15     20.4930     2.1100    15.8990 C.3   1 Q4ZW   0.3430 
 17 H151    20.8535     2.6230    15.0074 H     1 Q4ZW   0.0800 
 18 H152    21.3240     1.9468    16.5852 H     1 Q4ZW   0.0800 
 19 C18     19.4330     2.9660    16.5820 C.3   1 Q4ZW  -0.1600 
 20 H181    19.1257     2.4820    17.5091 H     1 Q4ZW   0.0800 
 21 H182    19.8548     3.9458    16.8061 H     1 Q4ZW   0.0800 
 22 C21     15.1960     5.4370    16.3980 C.2   1 Q4ZW   0.0144 
 23 C22     14.7520     6.5820    15.7280 C.2   1 Q4ZW  -0.1500 
 24 H22     15.1872     6.8644    14.7808 H     1 Q4ZW   0.1500 
 25 C24     13.7500     7.3470    16.2930 C.2   1 Q4ZW   0.0144 
 26 C25     13.1420     6.9110    17.4600 C.2   1 Q4ZW   0.4212 
 27 N26     12.1350     7.8060    17.8140 N.2   1 Q4ZW  -0.6610 
 28 C28     11.9920     8.8110    16.8700 C.2   1 Q4ZW   0.7666 
 29 O29     11.1320     9.6670    16.8590 O.2   1 Q4ZW  -0.5700 
 30 C30     13.0470     8.5700    15.8210 C.2   1 Q4ZW  -0.1356 
 31 H30     13.2464     9.1507    14.9325 H     1 Q4ZW   0.1500 
 32 C33     13.5230     5.7570    18.1540 C.2   1 Q4ZW  -0.1356 
 33 H33     13.0545     5.4611    19.0810 H     1 Q4ZW   0.1500 
 34 C35     14.5490     5.0140    17.5680 C.2   1 Q4ZW  -0.1500 
 35 H35     14.8535     4.0861    18.0292 H     1 Q4ZW   0.1500 
@<TRIPOS>BOND
  1   1   2  2   
  2   2   3  am  
  3   2  22  1   
  4   3   4  1   
  5   3   5  1   
  6   5   6  1   
  7   5   7  1   
  8   5  19  1   
  9   7   8  1   
 10   7   9  1   
 11   7  10  1   
 12  10  11  1   
 13  10  12  1   
 14  10  13  1   
 15  13  14  1   
 16  13  15  1   
 17  13  16  1   
 18  16  17  1   
 19  16  18  1   
 20  16  19  1   
 21  19  20  1   
 22  19  21  1   
 23  22  23  2   
 24  22  34  1   
 25  23  24  1   
 26  23  25  1   
 27  25  26  1   
 28  25  30  2   
 29  26  27  2   
 30  26  32  1   
 31  27  28  1   
 32  28  29  2   
 33  28  30  1   
 34  30  31  1   
 35  32  33  1   
 36  32  34  2   
 37  34  35  1   
@<TRIPOS>SUBSTRUCTURE
  1 Q4ZW  22 GROUP 4 A **** 0

# MOE 2022.02 (io_trps.svl 2020.11)
