# created with PyMOL 2.5.0
@<TRIPOS>MOLECULE
5CCL
19 21 1                 
SMALL
USER_CHARGES
@<TRIPOS>ATOM
1	 O01	-3.276	10.553	33.718	O.2	1	4ZW506	0.000	
2	 C02	-3.502	9.428	34.107	C.2	1	4ZW506	0.000	
3	 N03	-2.876	8.771	35.166	N.pl3	1	4ZW506	0.000	
4	 C05	-1.837	9.248	36.074	C.3	1	4ZW506	0.000	
5	 C07	-0.496	9.726	35.619	C.3	1	4ZW506	0.000	
6	 C10	0.430	10.015	36.804	C.3	1	4ZW506	0.000	
7	 N13	0.479	9.023	37.883	N.3	1	4ZW506	0.000	
8	 C15	-0.817	8.545	38.338	C.3	1	4ZW506	0.000	
9	 C18	-1.768	8.223	37.196	C.3	1	4ZW506	0.000	
10	 C21	-4.653	8.665	33.554	C.2	1	4ZW506	0.000	
11	 C22	-5.339	9.151	32.440	C.2	1	4ZW506	0.000	
12	 C24	-6.422	8.425	32.001	C.2	1	4ZW506	0.000	
13	 C25	-6.861	7.303	32.679	C.2	1	4ZW506	0.000	
14	 N26	-7.981	6.773	32.020	N.pl3	1	4ZW506	0.000	
15	 C28	-8.311	7.563	30.885	C.2	1	4ZW506	0.000	
16	 O29	-9.128	7.409	30.111	O.2	1	4ZW506	0.000	
17	 C30	-7.304	8.709	30.806	C.2	1	4ZW506	0.000	
18	 C33	-6.226	6.811	33.806	C.2	1	4ZW506	0.000	
19	 C35	-5.128	7.540	34.262	C.2	1	4ZW506	0.000	
@<TRIPOS>BOND
1 1 2 2
2 2 3 1
3 2 10 1
4 3 4 1
5 4 5 1
6 4 9 1
7 5 6 1
8 6 7 1
9 7 8 1
10 8 9 1
11 10 11 ar
12 10 19 ar
13 11 12 ar
14 12 13 ar
15 12 17 ar
16 13 14 ar
17 13 18 ar
18 14 15 ar
19 15 16 2
20 15 17 ar
21 18 19 ar
@<TRIPOS>SUBSTRUCTURE
1	4ZW506	1	GROUP	1 A	4ZW
