# created with PyMOL 2.5.0
@<TRIPOS>MOLECULE
5CCL
19 21 1                 
SMALL
USER_CHARGES
@<TRIPOS>ATOM
1	 O01	16.217	4.552	14.464	O.2	1	4ZW505	0.000	
2	 C02	16.243	4.649	15.701	C.2	1	4ZW505	0.000	
3	 N03	17.173	3.935	16.371	N.pl3	1	4ZW505	0.000	
4	 C05	18.217	3.140	15.683	C.3	1	4ZW505	0.000	
5	 C07	17.664	1.803	15.250	C.3	1	4ZW505	0.000	
6	 C10	18.756	0.955	14.635	C.3	1	4ZW505	0.000	
7	 N13	19.921	0.830	15.521	N.3	1	4ZW505	0.000	
8	 C15	20.493	2.110	15.899	C.3	1	4ZW505	0.000	
9	 C18	19.433	2.966	16.582	C.3	1	4ZW505	0.000	
10	 C21	15.196	5.437	16.398	C.2	1	4ZW505	0.000	
11	 C22	14.752	6.582	15.728	C.2	1	4ZW505	0.000	
12	 C24	13.750	7.347	16.293	C.2	1	4ZW505	0.000	
13	 C25	13.142	6.911	17.460	C.2	1	4ZW505	0.000	
14	 N26	12.135	7.806	17.814	N.pl3	1	4ZW505	0.000	
15	 C28	11.992	8.811	16.870	C.2	1	4ZW505	0.000	
16	 O29	11.132	9.667	16.859	O.2	1	4ZW505	0.000	
17	 C30	13.047	8.570	15.821	C.2	1	4ZW505	0.000	
18	 C33	13.523	5.757	18.154	C.2	1	4ZW505	0.000	
19	 C35	14.549	5.014	17.568	C.2	1	4ZW505	0.000	
@<TRIPOS>BOND
1 1 2 2
2 2 3 1
3 2 10 1
4 3 4 1
5 4 5 1
6 4 9 1
7 5 6 1
8 6 7 1
9 7 8 1
10 8 9 1
11 10 11 ar
12 10 19 ar
13 11 12 ar
14 12 13 ar
15 12 17 ar
16 13 14 ar
17 13 18 ar
18 14 15 ar
19 15 16 2
20 15 17 ar
21 18 19 ar
@<TRIPOS>SUBSTRUCTURE
1	4ZW505	1	GROUP	1 A	4ZW
