@<TRIPOS>MOLECULE
5CCL.A
51 53 1 0 0 
SMALL
USER_CHARGES


@<TRIPOS>ATOM
  1 N        9.1220    14.7980    23.5610 N.4   1 SAM  -0.8530 
  2 H1       8.2590    14.5688    24.0330 H     1 SAM   0.4500 
  3 H2       9.3833    15.7487    23.7801 H     1 SAM   0.4500 
  4 H3       9.8507    14.1694    23.8676 H     1 SAM   0.4500 
  5 CA       8.9360    14.6620    22.1000 C.3   1 SAM   0.3170 
  6 HA       9.8927    14.9199    21.6457 H     1 SAM   0.0800 
  7 C        7.9100    15.6470    21.5710 C.2   1 SAM   0.9060 
  8 O        7.5840    15.5610    20.3580 O.co2 1 SAM  -0.9000 
  9 CB       8.6550    13.2270    21.6560 C.3   1 SAM  -0.1600 
 10 HB1      8.0685    13.2667    20.7381 H     1 SAM   0.0800 
 11 HB2      8.0730    12.7397    22.4382 H     1 SAM   0.0800 
 12 CG       9.9160    12.3600    21.3840 C.3   1 SAM  -0.1525 
 13 HG1      9.6024    11.3333    21.1952 H     1 SAM   0.0800 
 14 HG2     10.5580    12.3877    22.2644 H     1 SAM   0.0800 
 15 SD      10.8280    12.9360    20.0010 S.3   1 SAM   0.9775 
 16 CE      11.1420    11.5960    19.0050 C.3   1 SAM  -0.2325 
 17 HE1     10.2153    11.2685    18.5338 H     1 SAM   0.0800 
 18 HE2     11.5505    10.7840    19.6065 H     1 SAM   0.0800 
 19 HE3     11.8617    11.8758    18.2356 H     1 SAM   0.0800 
 20 C5'     12.4490    13.1910    20.5720 C.3   1 SAM  -0.1525 
 21 H5'1    13.0988    13.2656    19.7001 H     1 SAM   0.0800 
 22 H5'2    12.7323    12.3199    21.1627 H     1 SAM   0.0800 
 23 C4'     12.6840    14.4300    21.4320 C.3   1 SAM   0.2000 
 24 H4'     12.2648    15.2400    20.8351 H     1 SAM   0.0800 
 25 O4'     12.0690    14.2750    22.7340 O.3   1 SAM  -0.5600 
 26 C3'     14.1310    14.7000    21.7470 C.3   1 SAM   0.2000 
 27 H3'     14.7487    13.8111    21.8751 H     1 SAM   0.0800 
 28 O3'     14.8200    15.3390    20.6880 O.3   1 SAM  -0.6800 
 29 H3'     15.7143    15.5161    20.9887 H     1 SAM   0.4000 
 30 C2'     14.0030    15.4990    23.0050 C.3   1 SAM   0.2000 
 31 H2'     14.9621    15.5776    23.5170 H     1 SAM   0.0800 
 32 O2'     13.5230    16.8460    22.7430 O.3   1 SAM  -0.6800 
 33 H2'     14.1748    17.2842    22.1909 H     1 SAM   0.4000 
 34 C1'     12.9070    14.7840    23.7700 C.3   1 SAM   0.5691 
 35 H1'     12.4777    15.4837    24.4871 H     1 SAM   0.0800 
 36 OXT      7.4560    16.5100    22.3670 O.co2 1 SAM  -0.9000 
 37 N1      14.8200    13.2270    28.3280 N.2   1 SAM  -0.6610 
 38 C2      14.6500    14.4530    27.7890 C.2   1 SAM   0.6010 
 39 H2      14.9594    15.2879    28.4002 H     1 SAM   0.0600 
 40 N3      14.1390    14.7610    26.5760 N.2   1 SAM  -0.6610 
 41 C4      13.7970    13.7060    25.8140 C.2   1 SAM   0.5000 
 42 C5      13.9670    12.3630    26.2760 C.2   1 SAM   0.4500 
 43 C6      14.4830    12.1390    27.6020 C.2   1 SAM   0.6110 
 44 N6      14.6420    10.9140    28.0860 N.2   1 SAM  -0.2000 
 45 H62     15.0058    10.7829    29.0191 H     1 SAM   0.4000 
 46 H61     14.3993    10.1125    27.5214 H     1 SAM   0.4000 
 47 N7      13.5430    11.5140    25.2760 N.2   1 SAM  -0.6960 
 48 C8      13.1600    12.2780    24.2430 C.3   1 SAM   0.4551 
 49 H81     12.1090    12.0897    24.0237 H     1 SAM   0.0800 
 50 H82     13.7631    12.0333    23.3687 H     1 SAM   0.0800 
 51 N9      13.3290    13.5980    24.5560 N.pl3 1 SAM  -0.7882 
@<TRIPOS>BOND
  1   1   2  1   
  2   1   3  1   
  3   1   4  1   
  4   1   5  1   
  5   5   6  1   
  6   5   7  1   
  7   5   9  1   
  8   7   8  ar  
  9   7  36  ar  
 10   9  10  1   
 11   9  11  1   
 12   9  12  1   
 13  12  13  1   
 14  12  14  1   
 15  12  15  1   
 16  15  16  1   
 17  15  20  1   
 18  16  17  1   
 19  16  18  1   
 20  16  19  1   
 21  20  21  1   
 22  20  22  1   
 23  20  23  1   
 24  23  24  1   
 25  23  25  1   
 26  23  26  1   
 27  25  34  1   
 28  26  27  1   
 29  26  28  1   
 30  26  30  1   
 31  28  29  1   
 32  30  31  1   
 33  30  32  1   
 34  30  34  1   
 35  32  33  1   
 36  34  35  1   
 37  34  51  1   
 38  37  38  2   
 39  37  43  1   
 40  38  39  1   
 41  38  40  1   
 42  40  41  2   
 43  41  42  1   
 44  41  51  1   
 45  42  43  1   
 46  42  47  2   
 47  43  44  2   
 48  44  45  1   
 49  44  46  1   
 50  47  48  1   
 51  48  49  1   
 52  48  50  1   
 53  48  51  1   
@<TRIPOS>SUBSTRUCTURE
  1 SAM  25 GROUP 4 A **** 0

# MOE 2022.02 (io_trps.svl 2020.11)
