# created with PyMOL 2.4.0
@<TRIPOS>MOLECULE
temp
50 52 1                 
SMALL
USER_CHARGES
@<TRIPOS>ATOM
1	   N	9.122	14.798	23.561	N.4	1	SAM1	0.000	
2	  CA	8.936	14.662	22.100	C.3	1	SAM1	0.000	
3	   C	7.910	15.647	21.571	C.2	1	SAM1	0.000	
4	   O	7.584	15.561	20.358	O.co2	1	SAM1	0.000	
5	  CB	8.655	13.227	21.656	C.3	1	SAM1	0.000	
6	  CG	9.916	12.360	21.384	C.3	1	SAM1	0.000	
7	  SD	10.828	12.936	20.001	S.3	1	SAM1	0.000	
8	  CE	11.142	11.596	19.005	C.3	1	SAM1	0.000	
9	 C5'	12.449	13.191	20.572	C.3	1	SAM1	0.000	
10	 C4'	12.684	14.430	21.432	C.3	1	SAM1	0.000	
11	 O4'	12.069	14.275	22.734	O.3	1	SAM1	0.000	
12	 C3'	14.131	14.700	21.747	C.3	1	SAM1	0.000	
13	 O3'	14.820	15.339	20.688	O.3	1	SAM1	0.000	
14	 C2'	14.003	15.499	23.005	C.3	1	SAM1	0.000	
15	 O2'	13.523	16.846	22.743	O.3	1	SAM1	0.000	
16	 C1'	12.907	14.784	23.770	C.3	1	SAM1	0.000	
17	 OXT	7.456	16.510	22.367	O.co2	1	SAM1	0.000	
18	  N1	14.820	13.227	28.328	N.2	1	SAM1	0.000	
19	  C2	14.650	14.453	27.789	C.2	1	SAM1	0.000	
20	  N3	14.139	14.761	26.576	N.2	1	SAM1	0.000	
21	  C4	13.797	13.706	25.814	C.2	1	SAM1	0.000	
22	  C5	13.967	12.363	26.276	C.2	1	SAM1	0.000	
23	  C6	14.483	12.139	27.602	C.2	1	SAM1	0.000	
24	  N6	14.642	10.914	28.086	N.pl3	1	SAM1	0.000	
25	  N7	13.543	11.514	25.276	N.2	1	SAM1	0.000	
26	  C8	13.160	12.278	24.243	C.2	1	SAM1	0.000	
27	  N9	13.329	13.598	24.556	N.2	1	SAM1	0.000	
28	  HA	9.893	14.920	21.646	 H	1	SAM1	0.000	
29	 HB1	8.068	13.267	20.738	 H	1	SAM1	0.000	
30	 HB2	8.073	12.740	22.438	 H	1	SAM1	0.000	
31	 HG1	9.602	11.333	21.195	 H	1	SAM1	0.000	
32	 HG2	10.558	12.388	22.264	 H	1	SAM1	0.000	
33	 HE1	10.215	11.269	18.534	 H	1	SAM1	0.000	
34	 HE2	11.550	10.784	19.607	 H	1	SAM1	0.000	
35	 HE3	11.862	11.876	18.236	 H	1	SAM1	0.000	
36	  H1	8.259	14.569	24.033	 H	1	SAM1	0.000	
37	  H2	9.383	15.749	23.780	 H	1	SAM1	0.000	
38	  H2	14.959	15.288	28.400	 H	1	SAM1	0.000	
39	  H3	9.851	14.169	23.868	 H	1	SAM1	0.000	
40	  H8	12.776	11.906	23.305	 H	1	SAM1	0.000	
41	 H1'	12.478	15.484	24.487	 H	1	SAM1	0.000	
42	 H2'	14.962	15.578	23.517	 H	1	SAM1	0.000	
43	 H2'	14.175	17.284	22.191	 H	1	SAM1	0.000	
44	 H3'	14.749	13.811	21.875	 H	1	SAM1	0.000	
45	 H3'	15.714	15.516	20.989	 H	1	SAM1	0.000	
46	 H4'	12.265	15.240	20.835	 H	1	SAM1	0.000	
47	 H61	14.399	10.113	27.521	 H	1	SAM1	0.000	
48	 H62	15.006	10.783	29.019	 H	1	SAM1	0.000	
49	H5'1	13.099	13.266	19.700	 H	1	SAM1	0.000	
50	H5'2	12.732	12.320	21.163	 H	1	SAM1	0.000	
@<TRIPOS>BOND
1 1 2 1
2 1 36 1
3 1 37 1
4 1 39 1
5 2 3 1
6 2 5 1
7 2 28 1
8 3 4 ar
9 3 17 ar
10 5 6 1
11 5 29 1
12 5 30 1
13 6 7 1
14 6 31 1
15 6 32 1
16 7 8 1
17 7 9 1
18 8 33 1
19 8 34 1
20 8 35 1
21 9 10 1
22 9 49 1
23 9 50 1
24 10 11 1
25 10 12 1
26 10 46 1
27 11 16 1
28 12 13 1
29 12 14 1
30 12 44 1
31 13 45 1
32 14 15 1
33 14 16 1
34 14 42 1
35 15 43 1
36 16 27 1
37 16 41 1
38 18 19 ar
39 18 23 ar
40 19 20 ar
41 19 38 1
42 20 21 ar
43 21 22 ar
44 21 27 ar
45 22 23 ar
46 22 25 ar
47 23 24 1
48 24 47 1
49 24 48 1
50 25 26 ar
51 26 27 ar
52 26 40 1
@<TRIPOS>SUBSTRUCTURE
1	SAM1	1	GROUP	1 A	SAM
