# created with PyMOL 2.5.0
@<TRIPOS>MOLECULE
5CCL
27 29 1                 
SMALL
USER_CHARGES
@<TRIPOS>ATOM
1	   N	9.122	14.798	23.561	N.3	1	SAM504	0.000	
2	  CA	8.936	14.662	22.100	C.3	1	SAM504	0.000	
3	   C	7.910	15.647	21.571	C.2	1	SAM504	0.000	
4	   O	7.584	15.561	20.358	O.co2	1	SAM504	0.000	
5	  CB	8.655	13.227	21.656	C.3	1	SAM504	0.000	
6	  CG	9.916	12.360	21.384	C.3	1	SAM504	0.000	
7	  SD	10.828	12.936	20.001	S.3	1	SAM504	0.000	
8	  CE	11.142	11.596	19.005	C.3	1	SAM504	0.000	
9	 C5'	12.449	13.191	20.572	C.3	1	SAM504	0.000	
10	 C4'	12.684	14.430	21.432	C.3	1	SAM504	0.000	
11	 O4'	12.069	14.275	22.734	O.3	1	SAM504	0.000	
12	 C3'	14.131	14.700	21.747	C.3	1	SAM504	0.000	
13	 O3'	14.820	15.339	20.688	O.3	1	SAM504	0.000	
14	 C2'	14.003	15.499	23.005	C.3	1	SAM504	0.000	
15	 O2'	13.523	16.846	22.743	O.3	1	SAM504	0.000	
16	 C1'	12.907	14.784	23.770	C.3	1	SAM504	0.000	
17	 OXT	7.456	16.510	22.367	O.co2	1	SAM504	0.000	
18	  N1	14.820	13.227	28.328	N.2	1	SAM504	0.000	
19	  C2	14.650	14.453	27.789	C.2	1	SAM504	0.000	
20	  N3	14.139	14.761	26.576	N.2	1	SAM504	0.000	
21	  C4	13.797	13.706	25.814	C.2	1	SAM504	0.000	
22	  C5	13.967	12.363	26.276	C.2	1	SAM504	0.000	
23	  C6	14.483	12.139	27.602	C.2	1	SAM504	0.000	
24	  N6	14.642	10.914	28.086	N.pl3	1	SAM504	0.000	
25	  N7	13.543	11.514	25.276	N.2	1	SAM504	0.000	
26	  C8	13.160	12.278	24.243	C.2	1	SAM504	0.000	
27	  N9	13.329	13.598	24.556	N.2	1	SAM504	0.000	
@<TRIPOS>BOND
1 1 2 1
2 2 3 1
3 2 5 1
4 3 4 ar
5 3 17 ar
6 5 6 1
7 6 7 1
8 7 8 1
9 7 9 1
10 9 10 1
11 10 11 1
12 10 12 1
13 11 16 1
14 12 13 1
15 12 14 1
16 14 15 1
17 14 16 1
18 16 27 1
19 18 19 ar
20 18 23 ar
21 19 20 ar
22 20 21 ar
23 21 22 ar
24 21 27 ar
25 22 23 ar
26 22 25 ar
27 23 24 1
28 25 26 ar
29 26 27 ar
@<TRIPOS>SUBSTRUCTURE
1	SAM504	1	GROUP	1 A	SAM
