# created with PyMOL 2.5.0
@<TRIPOS>MOLECULE
5LSA
14 14 1                 
SMALL
USER_CHARGES
@<TRIPOS>ATOM
1	  C1	9.061	-4.680	16.434	C.2	1	DNC304	0.000	
2	  N1	8.196	-1.229	17.899	N.2	1	DNC304	0.000	
3	  O1	9.576	-5.160	15.266	O.3	1	DNC304	0.000	
4	  C2	8.912	-3.193	16.517	C.2	1	DNC304	0.000	
5	  N2	7.705	-5.655	19.665	N.2	1	DNC304	0.000	
6	  O2	9.236	-2.539	15.435	O.2	1	DNC304	0.000	
7	  C3	8.362	-2.608	17.702	C.2	1	DNC304	0.000	
8	  O3	8.638	-0.459	17.065	O.2	1	DNC304	0.000	
9	  C4	8.012	-3.442	18.724	C.2	1	DNC304	0.000	
10	  O4	7.643	-0.881	18.931	O.2	1	DNC304	0.000	
11	  C5	8.166	-4.824	18.643	C.2	1	DNC304	0.000	
12	  O5	7.322	-5.182	20.730	O.2	1	DNC304	0.000	
13	  C6	8.660	-5.443	17.491	C.2	1	DNC304	0.000	
14	  O6	7.594	-6.880	19.441	O.2	1	DNC304	0.000	
@<TRIPOS>BOND
1 1 3 1
2 1 4 ar
3 1 13 ar
4 2 7 1
5 2 8 ar
6 2 10 ar
7 4 6 2
8 4 7 ar
9 5 11 1
10 5 12 ar
11 5 14 ar
12 7 9 ar
13 9 11 ar
14 11 13 ar
@<TRIPOS>SUBSTRUCTURE
1	DNC304	1	GROUP	1 A	DNC
