@<TRIPOS>MOLECULE
5LSA.A
17 17 1 0 0 
SMALL
USER_CHARGES


@<TRIPOS>ATOM
  1 C1       9.0610    -4.6800    16.4340 C.ar  1 DNC   0.0825 
  2 N1       8.1960    -1.2290    17.8990 N.pl3 1 DNC   0.9070 
  3 O1       9.5760    -5.1600    15.2660 O.3   1 DNC  -0.5325 
  4 H1       9.8100    -4.4896    14.6200 H     1 DNC   0.4500 
  5 C2       8.9120    -3.1930    16.5170 C.ar  1 DNC  -0.1710 
  6 N2       7.7050    -5.6550    19.6650 N.pl3 1 DNC   0.9070 
  7 O2       9.2360    -2.5390    15.4350 O.3   1 DNC  -0.8290 
  8 C3       8.3620    -2.6080    17.7020 C.ar  1 DNC   0.1330 
  9 O3       8.6380    -0.4590    17.0650 O.2   1 DNC  -0.5200 
 10 C4       8.0120    -3.4420    18.7240 C.ar  1 DNC  -0.1500 
 11 H4       7.6012    -3.0155    19.6272 H     1 DNC   0.1500 
 12 O4       7.6430    -0.8810    18.9310 O.2   1 DNC  -0.5200 
 13 C5       8.1660    -4.8240    18.6430 C.ar  1 DNC   0.1330 
 14 O5       7.3220    -5.1820    20.7300 O.2   1 DNC  -0.5200 
 15 C6       8.6600    -5.4430    17.4910 C.ar  1 DNC  -0.1500 
 16 H6       8.7238    -6.5198    17.4383 H     1 DNC   0.1500 
 17 O6       7.5940    -6.8800    19.4410 O.2   1 DNC  -0.5200 
@<TRIPOS>BOND
  1   1   3  1   
  2   1   5  ar  
  3   1  15  ar  
  4   2   8  1   
  5   2   9  2   
  6   2  12  2   
  7   3   4  1   
  8   5   7  1   
  9   5   8  ar  
 10   6  13  1   
 11   6  14  2   
 12   6  17  2   
 13   8  10  ar  
 14  10  11  1   
 15  10  13  ar  
 16  13  15  ar  
 17  15  16  1   
@<TRIPOS>SUBSTRUCTURE
  1 DNC  10 GROUP 4 A **** 0

# MOE 2022.02 (io_trps.svl 2020.11)
