# created with PyMOL 2.5.0
@<TRIPOS>MOLECULE
5LSA
27 29 1                 
SMALL
USER_CHARGES
@<TRIPOS>ATOM
1	   N	13.995	-0.419	11.581	N.3	1	SAM303	0.000	
2	  CA	14.916	-0.834	12.698	C.3	1	SAM303	0.000	
3	   C	15.562	-2.145	12.375	C.2	1	SAM303	0.000	
4	   O	14.865	-3.019	11.781	O.co2	1	SAM303	0.000	
5	  CB	14.150	-1.042	13.999	C.3	1	SAM303	0.000	
6	  CG	13.414	0.284	14.410	C.3	1	SAM303	0.000	
7	  SD	12.822	0.100	16.114	S.3	1	SAM303	0.000	
8	  CE	11.454	-1.008	15.733	C.3	1	SAM303	0.000	
9	 C5'	11.806	1.586	16.201	C.3	1	SAM303	0.000	
10	 C4'	12.588	2.908	16.331	C.3	1	SAM303	0.000	
11	 O4'	11.688	3.985	16.038	O.3	1	SAM303	0.000	
12	 C3'	13.063	3.213	17.772	C.3	1	SAM303	0.000	
13	 O3'	14.492	3.274	17.637	O.3	1	SAM303	0.000	
14	 C2'	12.429	4.567	18.150	C.3	1	SAM303	0.000	
15	 O2'	13.301	5.390	18.931	O.3	1	SAM303	0.000	
16	 C1'	12.173	5.121	16.750	C.3	1	SAM303	0.000	
17	 OXT	16.784	-2.330	12.679	O.co2	1	SAM303	0.000	
18	  N1	10.437	9.346	14.475	N.2	1	SAM303	0.000	
19	  C2	11.592	8.695	14.272	C.2	1	SAM303	0.000	
20	  N3	11.949	7.637	14.954	N.2	1	SAM303	0.000	
21	  C4	11.052	7.224	15.872	C.2	1	SAM303	0.000	
22	  C5	9.824	7.774	16.094	C.2	1	SAM303	0.000	
23	  C6	9.558	8.946	15.360	C.2	1	SAM303	0.000	
24	  N6	8.373	9.616	15.512	N.pl3	1	SAM303	0.000	
25	  N7	9.095	7.134	17.056	N.2	1	SAM303	0.000	
26	  C8	9.857	6.120	17.407	C.2	1	SAM303	0.000	
27	  N9	11.079	6.096	16.677	N.2	1	SAM303	0.000	
@<TRIPOS>BOND
1 1 2 1
2 2 3 1
3 2 5 1
4 3 4 ar
5 3 17 ar
6 5 6 1
7 6 7 1
8 7 8 1
9 7 9 1
10 9 10 1
11 10 11 1
12 10 12 1
13 11 16 1
14 12 13 1
15 12 14 1
16 14 15 1
17 14 16 1
18 16 27 1
19 18 19 ar
20 18 23 ar
21 19 20 ar
22 20 21 ar
23 21 22 ar
24 21 27 ar
25 22 23 ar
26 22 25 ar
27 23 24 1
28 25 26 ar
29 26 27 ar
@<TRIPOS>SUBSTRUCTURE
1	SAM303	1	GROUP	1 A	SAM
