# created with PyMOL 2.4.0
@<TRIPOS>MOLECULE
temp
50 52 1                 
SMALL
USER_CHARGES
@<TRIPOS>ATOM
1	   N	13.995	-0.419	11.581	N.4	1	SAM1	0.000	
2	  CA	14.916	-0.834	12.698	C.3	1	SAM1	0.000	
3	   C	15.562	-2.145	12.375	C.2	1	SAM1	0.000	
4	   O	14.865	-3.019	11.781	O.co2	1	SAM1	0.000	
5	  CB	14.150	-1.042	13.999	C.3	1	SAM1	0.000	
6	  CG	13.414	0.284	14.410	C.3	1	SAM1	0.000	
7	  SD	12.822	0.100	16.114	S.3	1	SAM1	0.000	
8	  CE	11.454	-1.008	15.733	C.3	1	SAM1	0.000	
9	 C5'	11.806	1.586	16.201	C.3	1	SAM1	0.000	
10	 C4'	12.588	2.908	16.331	C.3	1	SAM1	0.000	
11	 O4'	11.688	3.985	16.038	O.3	1	SAM1	0.000	
12	 C3'	13.063	3.213	17.772	C.3	1	SAM1	0.000	
13	 O3'	14.492	3.274	17.637	O.3	1	SAM1	0.000	
14	 C2'	12.429	4.567	18.150	C.3	1	SAM1	0.000	
15	 O2'	13.301	5.390	18.931	O.3	1	SAM1	0.000	
16	 C1'	12.173	5.121	16.750	C.3	1	SAM1	0.000	
17	 OXT	16.784	-2.330	12.679	O.co2	1	SAM1	0.000	
18	  N1	10.437	9.346	14.475	N.2	1	SAM1	0.000	
19	  C2	11.592	8.695	14.272	C.2	1	SAM1	0.000	
20	  N3	11.949	7.637	14.954	N.2	1	SAM1	0.000	
21	  C4	11.052	7.224	15.872	C.2	1	SAM1	0.000	
22	  C5	9.824	7.774	16.094	C.2	1	SAM1	0.000	
23	  C6	9.558	8.946	15.360	C.2	1	SAM1	0.000	
24	  N6	8.373	9.616	15.512	N.pl3	1	SAM1	0.000	
25	  N7	9.095	7.134	17.056	N.2	1	SAM1	0.000	
26	  C8	9.857	6.120	17.407	C.2	1	SAM1	0.000	
27	  N9	11.079	6.096	16.677	N.2	1	SAM1	0.000	
28	  HA	15.653	-0.039	12.810	 H	1	SAM1	0.000	
29	 HB1	14.848	-1.326	14.787	 H	1	SAM1	0.000	
30	 HB2	13.415	-1.835	13.862	 H	1	SAM1	0.000	
31	 HG1	12.570	0.459	13.743	 H	1	SAM1	0.000	
32	 HG2	14.106	1.124	14.349	 H	1	SAM1	0.000	
33	 HE1	11.830	-2.026	15.626	 H	1	SAM1	0.000	
34	 HE2	10.981	-0.695	14.802	 H	1	SAM1	0.000	
35	 HE3	10.723	-0.974	16.541	 H	1	SAM1	0.000	
36	  H1	13.292	-1.131	11.442	 H	1	SAM1	0.000	
37	  H2	14.528	-0.301	10.731	 H	1	SAM1	0.000	
38	  H2	12.261	9.062	13.508	 H	1	SAM1	0.000	
39	  H3	13.547	0.454	11.821	 H	1	SAM1	0.000	
40	  H8	9.588	5.393	18.159	 H	1	SAM1	0.000	
41	 H1'	13.078	5.609	16.388	 H	1	SAM1	0.000	
42	 H2'	11.547	4.505	18.787	 H	1	SAM1	0.000	
43	 H2'	13.456	4.940	19.764	 H	1	SAM1	0.000	
44	 H3'	12.789	2.496	18.545	 H	1	SAM1	0.000	
45	 H3'	14.852	3.549	18.483	 H	1	SAM1	0.000	
46	 H4'	13.446	2.814	15.665	 H	1	SAM1	0.000	
47	 H61	7.677	9.271	16.157	 H	1	SAM1	0.000	
48	 H62	8.196	10.455	14.979	 H	1	SAM1	0.000	
49	H5'1	11.150	1.496	17.067	 H	1	SAM1	0.000	
50	H5'2	11.205	1.637	15.293	 H	1	SAM1	0.000	
@<TRIPOS>BOND
1 1 2 1
2 1 36 1
3 1 37 1
4 1 39 1
5 2 3 1
6 2 5 1
7 2 28 1
8 3 4 ar
9 3 17 ar
10 5 6 1
11 5 29 1
12 5 30 1
13 6 7 1
14 6 31 1
15 6 32 1
16 7 8 1
17 7 9 1
18 8 33 1
19 8 34 1
20 8 35 1
21 9 10 1
22 9 49 1
23 9 50 1
24 10 11 1
25 10 12 1
26 10 46 1
27 11 16 1
28 12 13 1
29 12 14 1
30 12 44 1
31 13 45 1
32 14 15 1
33 14 16 1
34 14 42 1
35 15 43 1
36 16 27 1
37 16 41 1
38 18 19 ar
39 18 23 ar
40 19 20 ar
41 19 38 1
42 20 21 ar
43 21 22 ar
44 21 27 ar
45 22 23 ar
46 22 25 ar
47 23 24 1
48 24 47 1
49 24 48 1
50 25 26 ar
51 26 27 ar
52 26 40 1
@<TRIPOS>SUBSTRUCTURE
1	SAM1	1	GROUP	1 A	SAM
