@<TRIPOS>MOLECULE
5LSA.A
51 53 1 0 0 
SMALL
USER_CHARGES


@<TRIPOS>ATOM
  1 N       13.9950    -0.4190    11.5810 N.4   1 SAM  -0.8530 
  2 H1      13.2923    -1.1310    11.4419 H     1 SAM   0.4500 
  3 H2      14.5280    -0.3015    10.7312 H     1 SAM   0.4500 
  4 H3      13.5470     0.4539    11.8208 H     1 SAM   0.4500 
  5 CA      14.9160    -0.8340    12.6980 C.3   1 SAM   0.3170 
  6 HA      15.6528    -0.0386    12.8101 H     1 SAM   0.0800 
  7 C       15.5620    -2.1450    12.3750 C.2   1 SAM   0.9060 
  8 O       14.8650    -3.0190    11.7810 O.co2 1 SAM  -0.9000 
  9 CB      14.1500    -1.0420    13.9990 C.3   1 SAM  -0.1600 
 10 HB1     14.8477    -1.3261    14.7867 H     1 SAM   0.0800 
 11 HB2     13.4147    -1.8348    13.8617 H     1 SAM   0.0800 
 12 CG      13.4140     0.2840    14.4100 C.3   1 SAM  -0.1525 
 13 HG1     12.5698     0.4591    13.7431 H     1 SAM   0.0800 
 14 HG2     14.1058     1.1241    14.3486 H     1 SAM   0.0800 
 15 SD      12.8220     0.1000    16.1140 S.3   1 SAM   0.9775 
 16 CE      11.4540    -1.0080    15.7330 C.3   1 SAM  -0.2325 
 17 HE1     11.8297    -2.0256    15.6258 H     1 SAM   0.0800 
 18 HE2     10.9815    -0.6952    14.8019 H     1 SAM   0.0800 
 19 HE3     10.7229    -0.9738    16.5407 H     1 SAM   0.0800 
 20 C5'     11.8060     1.5860    16.2010 C.3   1 SAM  -0.1525 
 21 H5'1    11.1497     1.4957    17.0666 H     1 SAM   0.0800 
 22 H5'2    11.2050     1.6374    15.2931 H     1 SAM   0.0800 
 23 C4'     12.5880     2.9080    16.3310 C.3   1 SAM   0.2000 
 24 H4'     13.4460     2.8141    15.6654 H     1 SAM   0.0800 
 25 O4'     11.6880     3.9850    16.0380 O.3   1 SAM  -0.5600 
 26 C3'     13.0630     3.2130    17.7720 C.3   1 SAM   0.2000 
 27 H3'     12.7887     2.4956    18.5455 H     1 SAM   0.0800 
 28 O3'     14.4920     3.2740    17.6370 O.3   1 SAM  -0.6800 
 29 H3'     14.8521     3.5486    18.4835 H     1 SAM   0.4000 
 30 C2'     12.4290     4.5670    18.1500 C.3   1 SAM   0.2000 
 31 H2'     11.5468     4.5051    18.7872 H     1 SAM   0.0800 
 32 O2'     13.3010     5.3900    18.9310 O.3   1 SAM  -0.6800 
 33 H2'     12.8609     6.2323    19.0666 H     1 SAM   0.4000 
 34 C1'     12.1730     5.1210    16.7500 C.3   1 SAM   0.5691 
 35 H1'     13.0779     5.6089    16.3878 H     1 SAM   0.0800 
 36 OXT     16.7840    -2.3300    12.6790 O.co2 1 SAM  -0.9000 
 37 N1      10.4370     9.3460    14.4750 N.2   1 SAM  -0.6610 
 38 C2      11.5920     8.6950    14.2720 C.2   1 SAM   0.6010 
 39 H2      12.2606     9.0624    13.5076 H     1 SAM   0.0600 
 40 N3      11.9490     7.6370    14.9540 N.2   1 SAM  -0.6610 
 41 C4      11.0520     7.2240    15.8720 C.2   1 SAM   0.5000 
 42 C5       9.8240     7.7740    16.0940 C.2   1 SAM   0.4500 
 43 C6       9.5580     8.9460    15.3600 C.2   1 SAM   0.6110 
 44 N6       8.3730     9.6160    15.5120 N.2   1 SAM  -0.2000 
 45 H62      8.1955    10.4554    14.9791 H     1 SAM   0.4000 
 46 H61      7.6767     9.2706    16.1570 H     1 SAM   0.4000 
 47 N7       9.0950     7.1340    17.0560 N.2   1 SAM  -0.6960 
 48 C8       9.8570     6.1200    17.4070 C.3   1 SAM   0.4551 
 49 H81      9.3167     5.1920    17.2201 H     1 SAM   0.0800 
 50 H82     10.0833     6.2008    18.4702 H     1 SAM   0.0800 
 51 N9      11.0790     6.0960    16.6770 N.pl3 1 SAM  -0.7882 
@<TRIPOS>BOND
  1   1   2  1   
  2   1   3  1   
  3   1   4  1   
  4   1   5  1   
  5   5   6  1   
  6   5   7  1   
  7   5   9  1   
  8   7   8  ar  
  9   7  36  ar  
 10   9  10  1   
 11   9  11  1   
 12   9  12  1   
 13  12  13  1   
 14  12  14  1   
 15  12  15  1   
 16  15  16  1   
 17  15  20  1   
 18  16  17  1   
 19  16  18  1   
 20  16  19  1   
 21  20  21  1   
 22  20  22  1   
 23  20  23  1   
 24  23  24  1   
 25  23  25  1   
 26  23  26  1   
 27  25  34  1   
 28  26  27  1   
 29  26  28  1   
 30  26  30  1   
 31  28  29  1   
 32  30  31  1   
 33  30  32  1   
 34  30  34  1   
 35  32  33  1   
 36  34  35  1   
 37  34  51  1   
 38  37  38  2   
 39  37  43  1   
 40  38  39  1   
 41  38  40  1   
 42  40  41  2   
 43  41  42  1   
 44  41  51  1   
 45  42  43  1   
 46  42  47  2   
 47  43  44  2   
 48  44  45  1   
 49  44  46  1   
 50  47  48  1   
 51  48  49  1   
 52  48  50  1   
 53  48  51  1   
@<TRIPOS>SUBSTRUCTURE
  1 SAM  25 GROUP 4 A **** 0

# MOE 2022.02 (io_trps.svl 2020.11)
