# created with PyMOL 2.5.0
@<TRIPOS>MOLECULE
5NFJ
27 29 1                 
SMALL
USER_CHARGES
@<TRIPOS>ATOM
1	   N	-8.540	48.415	-15.863	N.3	1	SAM501	0.000	
2	  CA	-9.080	47.058	-15.919	C.3	1	SAM501	0.000	
3	   C	-10.411	47.095	-16.685	C.2	1	SAM501	0.000	
4	   O	-10.579	47.978	-17.594	O.co2	1	SAM501	0.000	
5	  CB	-9.213	46.435	-14.502	C.3	1	SAM501	0.000	
6	  CG	-8.969	44.905	-14.568	C.3	1	SAM501	0.000	
7	  SD	-9.315	43.974	-13.153	S.3	1	SAM501	0.000	
8	  CE	-7.819	44.035	-12.387	C.3	1	SAM501	0.000	
9	 C5'	-9.659	42.357	-13.670	C.3	1	SAM501	0.000	
10	 C4'	-11.032	41.966	-14.226	C.3	1	SAM501	0.000	
11	 O4'	-11.903	41.456	-13.220	O.3	1	SAM501	0.000	
12	 C3'	-11.872	43.071	-14.942	C.3	1	SAM501	0.000	
13	 O3'	-11.626	43.040	-16.337	O.3	1	SAM501	0.000	
14	 C2'	-13.264	42.714	-14.655	C.3	1	SAM501	0.000	
15	 O2'	-13.734	41.773	-15.619	O.3	1	SAM501	0.000	
16	 C1'	-13.220	41.993	-13.307	C.3	1	SAM501	0.000	
17	 OXT	-11.311	46.263	-16.375	O.co2	1	SAM501	0.000	
18	  N1	-16.834	44.505	-10.492	N.2	1	SAM501	0.000	
19	  C2	-16.957	43.787	-11.641	C.2	1	SAM501	0.000	
20	  N3	-15.913	43.237	-12.274	N.2	1	SAM501	0.000	
21	  C4	-14.678	43.282	-11.747	C.2	1	SAM501	0.000	
22	  C5	-14.470	43.983	-10.503	C.2	1	SAM501	0.000	
23	  C6	-15.630	44.655	-9.904	C.2	1	SAM501	0.000	
24	  N6	-15.474	45.353	-8.741	N.pl3	1	SAM501	0.000	
25	  N7	-13.148	43.935	-10.243	N.2	1	SAM501	0.000	
26	  C8	-12.571	43.246	-11.228	C.2	1	SAM501	0.000	
27	  N9	-13.495	42.857	-12.125	N.2	1	SAM501	0.000	
@<TRIPOS>BOND
1 1 2 1
2 2 3 1
3 2 5 1
4 3 4 ar
5 3 17 ar
6 5 6 1
7 6 7 1
8 7 8 1
9 7 9 1
10 9 10 1
11 10 11 1
12 10 12 1
13 11 16 1
14 12 13 1
15 12 14 1
16 14 15 1
17 14 16 1
18 16 27 1
19 18 19 ar
20 18 23 ar
21 19 20 ar
22 20 21 ar
23 21 22 ar
24 21 27 ar
25 22 23 ar
26 22 25 ar
27 23 24 1
28 25 26 ar
29 26 27 ar
@<TRIPOS>SUBSTRUCTURE
1	SAM501	1	GROUP	1 A	SAM
