@<TRIPOS>MOLECULE
5NFJ.A
51 53 1 0 0 
SMALL
USER_CHARGES


@<TRIPOS>ATOM
  1 N       -8.5400    48.4150   -15.8630 N.4   1 SAM  -0.8530 
  2 H1      -9.1844    49.0135   -15.3663 H     1 SAM   0.4500 
  3 H2      -8.4107    48.7649   -16.8016 H     1 SAM   0.4500 
  4 H3      -7.6517    48.4043   -15.3824 H     1 SAM   0.4500 
  5 CA      -9.0800    47.0580   -15.9190 C.3   1 SAM   0.3170 
  6 HA      -8.3903    46.4050   -16.4538 H     1 SAM   0.0800 
  7 C      -10.4110    47.0950   -16.6850 C.2   1 SAM   0.9060 
  8 O      -10.5790    47.9780   -17.5940 O.co2 1 SAM  -0.9000 
  9 CB      -9.2130    46.4350   -14.5020 C.3   1 SAM  -0.1600 
 10 HB1    -10.2153    46.6241   -14.1176 H     1 SAM   0.0800 
 11 HB2     -8.4775    46.8891   -13.8379 H     1 SAM   0.0800 
 12 CG      -8.9690    44.9050   -14.5680 C.3   1 SAM  -0.1525 
 13 HG1     -7.9167    44.7533   -14.8082 H     1 SAM   0.0800 
 14 HG2     -9.5864    44.5115   -15.3755 H     1 SAM   0.0800 
 15 SD      -9.3150    43.9740   -13.1530 S.3   1 SAM   0.9775 
 16 CE      -7.8190    44.0350   -12.3870 C.3   1 SAM  -0.2325 
 17 HE1     -7.6159    45.0571   -12.0674 H     1 SAM   0.0800 
 18 HE2     -7.0427    43.7098   -13.0796 H     1 SAM   0.0800 
 19 HE3     -7.8289    43.3776   -11.5176 H     1 SAM   0.0800 
 20 C5'     -9.6590    42.3570   -13.6700 C.3   1 SAM  -0.1525 
 21 H5'1    -9.4833    41.7150   -12.8069 H     1 SAM   0.0800 
 22 H5'2    -8.9343    42.1235   -14.4500 H     1 SAM   0.0800 
 23 C4'    -11.0320    41.9660   -14.2260 C.3   1 SAM   0.2000 
 24 H4'    -10.7243    41.2300   -14.9688 H     1 SAM   0.0800 
 25 O4'    -11.9030    41.4560   -13.2200 O.3   1 SAM  -0.5600 
 26 C3'    -11.8720    43.0710   -14.9420 C.3   1 SAM   0.2000 
 27 H3'    -11.6256    44.0764   -14.6007 H     1 SAM   0.0800 
 28 O3'    -11.6260    43.0400   -16.3370 O.3   1 SAM  -0.6800 
 29 H3'    -12.1897    43.7007   -16.7459 H     1 SAM   0.4000 
 30 C2'    -13.2640    42.7140   -14.6550 C.3   1 SAM   0.2000 
 31 H2'    -13.9076    43.5936   -14.6648 H     1 SAM   0.0800 
 32 O2'    -13.7340    41.7730   -15.6190 O.3   1 SAM  -0.6800 
 33 H2'    -13.7059    42.1995   -16.4786 H     1 SAM   0.4000 
 34 C1'    -13.2200    41.9930   -13.3070 C.3   1 SAM   0.5691 
 35 H1'    -14.0104    41.2430   -13.2771 H     1 SAM   0.0800 
 36 OXT    -11.3110    46.2630   -16.3750 O.co2 1 SAM  -0.9000 
 37 N1     -16.8340    44.5050   -10.4920 N.2   1 SAM  -0.6610 
 38 C2     -16.9570    43.7870   -11.6410 C.2   1 SAM   0.6010 
 39 H2     -17.9426    43.6544   -12.0622 H     1 SAM   0.0600 
 40 N3     -15.9130    43.2370   -12.2740 N.2   1 SAM  -0.6610 
 41 C4     -14.6780    43.2820   -11.7470 C.2   1 SAM   0.5000 
 42 C5     -14.4700    43.9830   -10.5030 C.2   1 SAM   0.4500 
 43 C6     -15.6300    44.6550    -9.9040 C.2   1 SAM   0.6110 
 44 N6     -15.4740    45.3530    -8.7410 N.2   1 SAM  -0.2000 
 45 H62    -16.2660    45.8186    -8.3213 H     1 SAM   0.4000 
 46 H61    -14.5666    45.4038    -8.3003 H     1 SAM   0.4000 
 47 N7     -13.1480    43.9350   -10.2430 N.2   1 SAM  -0.6960 
 48 C8     -12.5710    43.2460   -11.2280 C.3   1 SAM   0.4551 
 49 H81    -12.0797    42.3663   -10.8124 H     1 SAM   0.0800 
 50 H82    -11.8314    43.8755   -11.7227 H     1 SAM   0.0800 
 51 N9     -13.4950    42.8570   -12.1250 N.pl3 1 SAM  -0.7882 
@<TRIPOS>BOND
  1   1   2  1   
  2   1   3  1   
  3   1   4  1   
  4   1   5  1   
  5   5   6  1   
  6   5   7  1   
  7   5   9  1   
  8   7   8  ar  
  9   7  36  ar  
 10   9  10  1   
 11   9  11  1   
 12   9  12  1   
 13  12  13  1   
 14  12  14  1   
 15  12  15  1   
 16  15  16  1   
 17  15  20  1   
 18  16  17  1   
 19  16  18  1   
 20  16  19  1   
 21  20  21  1   
 22  20  22  1   
 23  20  23  1   
 24  23  24  1   
 25  23  25  1   
 26  23  26  1   
 27  25  34  1   
 28  26  27  1   
 29  26  28  1   
 30  26  30  1   
 31  28  29  1   
 32  30  31  1   
 33  30  32  1   
 34  30  34  1   
 35  32  33  1   
 36  34  35  1   
 37  34  51  1   
 38  37  38  2   
 39  37  43  1   
 40  38  39  1   
 41  38  40  1   
 42  40  41  2   
 43  41  42  1   
 44  41  51  1   
 45  42  43  1   
 46  42  47  2   
 47  43  44  2   
 48  44  45  1   
 49  44  46  1   
 50  47  48  1   
 51  48  49  1   
 52  48  50  1   
 53  48  51  1   
@<TRIPOS>SUBSTRUCTURE
  1 SAM  26 GROUP 4 A **** 0

# MOE 2022.02 (io_trps.svl 2020.11)
