# created with PyMOL 2.5.0
@<TRIPOS>MOLECULE
3ELW
51 56 1                 
SMALL
USER_CHARGES
@<TRIPOS>ATOM
1	  PA	-17.249	-6.805	-16.572	P.3	1	GP34634	0.000	
2	  PB	-16.781	-5.490	-18.971	P.3	1	GP34634	0.000	
3	  PG	-19.484	-4.352	-19.720	P.3	1	GP34634	0.000	
4	 C1D	-14.007	-5.812	-12.990	C.3	1	GP34634	0.000	
5	 C1E	-18.515	-4.046	-24.909	C.3	1	GP34634	0.000	
6	 N1A	-18.175	-7.226	-10.144	N.2	1	GP34634	0.000	
7	 N1B	-16.261	-8.285	-26.832	N.2	1	GP34634	0.000	
8	 O1A	-17.789	-8.277	-16.952	O.co2	1	GP34634	0.000	
9	 O1B	-16.442	-6.579	-19.895	O.co2	1	GP34634	0.000	
10	 O1G	-19.094	-3.118	-18.758	O.co2	1	GP34634	0.000	
11	 C2A	-17.443	-7.978	-11.077	C.2	1	GP34634	0.000	
12	 C2B	-16.310	-6.981	-27.337	C.2	1	GP34634	0.000	
13	 C2D	-13.261	-7.104	-12.607	C.3	1	GP34634	0.000	
14	 C2E	-19.967	-3.686	-25.249	C.3	1	GP34634	0.000	
15	 N2A	-17.785	-9.237	-11.338	N.pl3	1	GP34634	0.000	
16	 N2B	-15.712	-6.684	-28.484	N.pl3	1	GP34634	0.000	
17	 O2A	-17.689	-6.383	-15.215	O.co2	1	GP34634	0.000	
18	 O2B	-16.406	-4.076	-19.234	O.co2	1	GP34634	0.000	
19	 O2D	-11.846	-6.878	-12.666	O.3	1	GP34634	0.000	
20	 O2E	-19.959	-2.563	-26.152	O.3	1	GP34634	0.000	
21	 O2G	-20.623	-5.152	-19.201	O.co2	1	GP34634	0.000	
22	 C3D	-13.700	-8.097	-13.683	C.3	1	GP34634	0.000	
23	 C3E	-20.522	-3.272	-23.898	C.3	1	GP34634	0.000	
24	 N3A	-16.393	-7.429	-11.713	N.2	1	GP34634	0.000	
25	 N3B	-16.965	-6.025	-26.661	N.2	1	GP34634	0.000	
26	 O3A	-17.781	-5.807	-17.750	O.3	1	GP34634	0.000	
27	 O3B	-18.125	-5.291	-19.919	O.3	1	GP34634	0.000	
28	 O3D	-12.633	-8.988	-14.021	O.3	1	GP34634	0.000	
29	 O3E	-21.613	-2.352	-24.079	O.3	1	GP34634	0.000	
30	 C4A	-16.009	-6.158	-11.480	C.2	1	GP34634	0.000	
31	 C4B	-17.584	-6.282	-25.497	C.2	1	GP34634	0.000	
32	 C4D	-14.011	-7.173	-14.855	C.3	1	GP34634	0.000	
33	 C4E	-19.313	-2.567	-23.258	C.3	1	GP34634	0.000	
34	 O4D	-14.706	-6.082	-14.233	O.3	1	GP34634	0.000	
35	 O4E	-18.168	-3.342	-23.677	O.3	1	GP34634	0.000	
36	 C5A	-16.699	-5.371	-10.565	C.2	1	GP34634	0.000	
37	 C5B	-17.567	-7.559	-24.940	C.2	1	GP34634	0.000	
38	 C5D	-14.953	-7.880	-15.829	C.3	1	GP34634	0.000	
39	 C5E	-19.272	-2.575	-21.717	C.3	1	GP34634	0.000	
40	 O5D	-15.634	-6.940	-16.673	O.3	1	GP34634	0.000	
41	 O5E	-19.861	-3.767	-21.178	O.3	1	GP34634	0.000	
42	 C6A	-17.792	-5.901	-9.887	C.2	1	GP34634	0.000	
43	 C6B	-16.897	-8.582	-25.613	C.2	1	GP34634	0.000	
44	 O6A	-18.413	-5.215	-9.077	O.2	1	GP34634	0.000	
45	 O6B	-16.860	-9.729	-25.159	O.2	1	GP34634	0.000	
46	 N7A	-16.111	-4.181	-10.538	N.2	1	GP34634	0.000	
47	 N7B	-18.246	-7.496	-23.793	N.2	1	GP34634	0.000	
48	 C8A	-15.091	-4.206	-11.395	C.2	1	GP34634	0.000	
49	 C8B	-18.678	-6.239	-23.638	C.2	1	GP34634	0.000	
50	 N9A	-15.021	-5.408	-11.969	N.2	1	GP34634	0.000	
51	 N9B	-18.278	-5.502	-24.678	N.2	1	GP34634	0.000	
@<TRIPOS>BOND
1 1 8 1
2 1 17 2
3 1 26 1
4 1 40 1
5 2 9 1
6 2 18 2
7 2 26 1
8 2 27 1
9 3 10 1
10 3 21 2
11 3 27 1
12 3 41 1
13 4 13 1
14 4 34 1
15 4 50 1
16 5 14 1
17 5 35 1
18 5 51 1
19 6 11 ar
20 6 42 ar
21 7 12 ar
22 7 43 ar
23 11 15 1
24 11 24 ar
25 12 16 1
26 12 25 ar
27 13 19 1
28 13 22 1
29 14 20 1
30 14 23 1
31 22 28 1
32 22 32 1
33 23 29 1
34 23 33 1
35 24 30 ar
36 25 31 ar
37 30 36 ar
38 30 50 ar
39 31 37 ar
40 31 51 ar
41 32 34 1
42 32 38 1
43 33 35 1
44 33 39 1
45 36 42 ar
46 36 46 ar
47 37 43 ar
48 37 47 ar
49 38 40 1
50 39 41 1
51 42 44 2
52 43 45 2
53 46 48 ar
54 47 49 ar
55 48 50 ar
56 49 51 ar
@<TRIPOS>SUBSTRUCTURE
1	GP34634	1	GROUP	1 A	GP3
