@<TRIPOS>MOLECULE
3ELW.A
73 78 1 0 0 
SMALL
USER_CHARGES


@<TRIPOS>ATOM
  1 PA     -17.2490    -6.8050   -16.5720 P.3   1 GP   1.4424 
  2 PB     -16.7810    -5.4900   -18.9710 P.3   1 GP   1.4424 
  3 PG     -19.4840    -4.3520   -19.7200 P.3   1 GP   1.4424 
  4 C1D    -14.0070    -5.8120   -12.9900 C.3   1 GP   0.5461 
  5 H1D    -13.2818    -5.0023   -13.0709 H     1 GP   0.0800 
  6 C1E    -18.5150    -4.0460   -24.9090 C.3   1 GP   0.5461 
  7 H1E    -17.9068    -3.7602   -25.7673 H     1 GP   0.0800 
  8 N1A    -18.1750    -7.2260   -10.1440 N.2   1 GP  -0.6610 
  9 N1B    -16.2610    -8.2850   -26.8320 N.2   1 GP  -0.6610 
 10 O1A    -17.7890    -8.2770   -16.9520 O.co2 1 GP  -0.9500 
 11 O1B    -16.4420    -6.5790   -19.8950 O.co2 1 GP  -0.9500 
 12 O1G    -19.0940    -3.1180   -18.7580 O.co2 1 GP  -0.9500 
 13 C2A    -17.4430    -7.9780   -11.0770 C.2   1 GP   0.7110 
 14 C2B    -16.3100    -6.9810   -27.3370 C.2   1 GP   0.7110 
 15 C2D    -13.2610    -7.1040   -12.6070 C.3   1 GP   0.2000 
 16 H2D    -13.4793    -7.4559   -11.5987 H     1 GP   0.0800 
 17 C2E    -19.9670    -3.6860   -25.2490 C.3   1 GP   0.2000 
 18 H2E    -20.5394    -4.4838   -25.7223 H     1 GP   0.0800 
 19 N2A    -17.7850    -9.2370   -11.3380 N.pl3 1 GP  -0.8500 
 20 H2A1   -18.5733    -9.6547   -10.8645 H     1 GP   0.4000 
 21 H2A2   -17.2563    -9.7750   -12.0096 H     1 GP   0.4000 
 22 N2B    -15.7120    -6.6840   -28.4840 N.pl3 1 GP  -0.8500 
 23 H2B1   -15.2186    -7.4008   -28.9967 H     1 GP   0.4000 
 24 H2B2   -15.7503    -5.7412   -28.8442 H     1 GP   0.4000 
 25 O2A    -17.6890    -6.3830   -15.2150 O.co2 1 GP  -0.9500 
 26 O2B    -16.4060    -4.0760   -19.2340 O.co2 1 GP  -0.9500 
 27 O2D    -11.8460    -6.8780   -12.6660 O.3   1 GP  -0.6800 
 28 H2D    -11.4106    -7.7130   -12.4792 H     1 GP   0.4000 
 29 O2E    -19.9590    -2.5630   -26.1520 O.3   1 GP  -0.6800 
 30 H2E    -20.8709    -2.2999   -26.2961 H     1 GP   0.4000 
 31 O2G    -20.6230    -5.1520   -19.2010 O.co2 1 GP  -0.9500 
 32 C3D    -13.7000    -8.0970   -13.6830 C.3   1 GP   0.2000 
 33 H3D    -14.5324    -8.7325   -13.3807 H     1 GP   0.0800 
 34 C3E    -20.5220    -3.2720   -23.8980 C.3   1 GP   0.2000 
 35 H3E    -20.9137    -4.0947   -23.2998 H     1 GP   0.0800 
 36 N3A    -16.3930    -7.4290   -11.7130 N.2   1 GP  -0.6610 
 37 N3B    -16.9650    -6.0250   -26.6610 N.2   1 GP  -0.6610 
 38 O3A    -17.7810    -5.8070   -17.7500 O.3   1 GP  -0.5424 
 39 O3B    -18.1250    -5.2910   -19.9190 O.3   1 GP  -0.5424 
 40 O3D    -12.6330    -8.9880   -14.0210 O.3   1 GP  -0.6800 
 41 H3D    -11.8832    -8.4533   -14.2922 H     1 GP   0.4000 
 42 O3E    -21.6130    -2.3520   -24.0790 O.3   1 GP  -0.6800 
 43 H3E    -21.8940    -2.0601   -23.2087 H     1 GP   0.4000 
 44 C4A    -16.0090    -6.1580   -11.4800 C.2   1 GP   0.7790 
 45 C4B    -17.5840    -6.2820   -25.4970 C.2   1 GP   0.7790 
 46 C4D    -14.0110    -7.1730   -14.8550 C.3   1 GP   0.2000 
 47 H4D    -13.1256    -6.8682   -15.4128 H     1 GP   0.0800 
 48 C4E    -19.3130    -2.5670   -23.2580 C.3   1 GP   0.2000 
 49 H4E    -19.3481    -1.5217   -23.5651 H     1 GP   0.0800 
 50 O4D    -14.7060    -6.0820   -14.2330 O.3   1 GP  -0.5600 
 51 O4E    -18.1680    -3.3420   -23.6770 O.3   1 GP  -0.5600 
 52 C5A    -16.6990    -5.3710   -10.5650 C.2   1 GP   0.4500 
 53 C5B    -17.5670    -7.5590   -24.9400 C.2   1 GP   0.4500 
 54 C5D    -14.9530    -7.8800   -15.8290 C.3   1 GP   0.1200 
 55 H5D1   -15.6910    -8.4463   -15.2609 H     1 GP   0.0800 
 56 H5D2   -14.3733    -8.5611   -16.4520 H     1 GP   0.0800 
 57 C5E    -19.2720    -2.5750   -21.7170 C.3   1 GP   0.1200 
 58 H5E1   -19.8205    -1.7100   -21.3443 H     1 GP   0.0800 
 59 H5E2   -18.2337    -2.5150   -21.3907 H     1 GP   0.0800 
 60 O5D    -15.6340    -6.9400   -16.6730 O.3   1 GP  -0.5512 
 61 O5E    -19.8610    -3.7670   -21.1780 O.3   1 GP  -0.5512 
 62 C6A    -17.7920    -5.9010    -9.8870 C.2   1 GP   0.7810 
 63 C6B    -16.8970    -8.5820   -25.6130 C.2   1 GP   0.7810 
 64 O6A    -18.4130    -5.2150    -9.0770 O.2   1 GP  -0.5700 
 65 O6B    -16.8600    -9.7290   -25.1590 O.2   1 GP  -0.5700 
 66 N7A    -16.1110    -4.1810   -10.5380 N.2   1 GP  -0.6610 
 67 N7B    -18.2460    -7.4960   -23.7930 N.2   1 GP  -0.6610 
 68 C8A    -15.0910    -4.2060   -11.3950 C.2   1 GP   0.5510 
 69 H8A    -14.4238    -3.3804   -11.5941 H     1 GP   0.0600 
 70 C8B    -18.6780    -6.2390   -23.6380 C.2   1 GP   0.5510 
 71 H8B    -19.2591    -5.8769   -22.8028 H     1 GP   0.0600 
 72 N9A    -15.0210    -5.4080   -11.9690 N.2   1 GP  -0.0751 
 73 N9B    -18.2780    -5.5020   -24.6780 N.2   1 GP  -0.0751 
@<TRIPOS>BOND
  1   1  10  ar  
  2   1  25  ar  
  3   1  38  1   
  4   1  60  1   
  5   2  11  ar  
  6   2  26  ar  
  7   2  38  1   
  8   2  39  1   
  9   3  12  ar  
 10   3  31  ar  
 11   3  39  1   
 12   3  61  1   
 13   4   5  1   
 14   4  15  1   
 15   4  50  1   
 16   4  72  1   
 17   6   7  1   
 18   6  17  1   
 19   6  51  1   
 20   6  73  1   
 21   8  13  2   
 22   8  62  1   
 23   9  14  2   
 24   9  63  1   
 25  13  19  1   
 26  13  36  1   
 27  14  22  1   
 28  14  37  1   
 29  15  16  1   
 30  15  27  1   
 31  15  32  1   
 32  17  18  1   
 33  17  29  1   
 34  17  34  1   
 35  19  20  1   
 36  19  21  1   
 37  22  23  1   
 38  22  24  1   
 39  27  28  1   
 40  29  30  1   
 41  32  33  1   
 42  32  40  1   
 43  32  46  1   
 44  34  35  1   
 45  34  42  1   
 46  34  48  1   
 47  36  44  2   
 48  37  45  2   
 49  40  41  1   
 50  42  43  1   
 51  44  52  1   
 52  44  72  1   
 53  45  53  1   
 54  45  73  1   
 55  46  47  1   
 56  46  50  1   
 57  46  54  1   
 58  48  49  1   
 59  48  51  1   
 60  48  57  1   
 61  52  62  1   
 62  52  66  2   
 63  53  63  1   
 64  53  67  2   
 65  54  55  1   
 66  54  56  1   
 67  54  60  1   
 68  57  58  1   
 69  57  59  1   
 70  57  61  1   
 71  62  64  2   
 72  63  65  2   
 73  66  68  1   
 74  67  70  1   
 75  68  69  1   
 76  68  72  2   
 77  70  71  1   
 78  70  73  2   
@<TRIPOS>SUBSTRUCTURE
  1 GP   2 GROUP 4 A **** 0

# MOE 2022.02 (io_trps.svl 2020.11)
