# created with PyMOL 2.5.0
@<TRIPOS>MOLECULE
3ELW
27 29 1                 
SMALL
USER_CHARGES
@<TRIPOS>ATOM
1	   N	-22.971	3.652	-6.984	N.3	1	SAM4633	0.000	
2	  CA	-23.404	2.248	-6.696	C.3	1	SAM4633	0.000	
3	   C	-22.452	1.554	-5.737	C.2	1	SAM4633	0.000	
4	   O	-21.387	2.098	-5.441	O.co2	1	SAM4633	0.000	
5	  CB	-23.479	1.447	-7.986	C.3	1	SAM4633	0.000	
6	  CG	-24.726	1.820	-8.774	C.3	1	SAM4633	0.000	
7	  SD	-25.075	0.674	-10.114	S.3	1	SAM4633	0.000	
8	  CE	-23.864	1.205	-11.356	C.3	1	SAM4633	0.000	
9	 C5'	-26.589	1.384	-10.801	C.3	1	SAM4633	0.000	
10	 C4'	-27.824	0.932	-10.037	C.3	1	SAM4633	0.000	
11	 O4'	-28.919	1.745	-10.410	O.3	1	SAM4633	0.000	
12	 C3'	-28.211	-0.507	-10.359	C.3	1	SAM4633	0.000	
13	 O3'	-28.326	-1.243	-9.166	O.3	1	SAM4633	0.000	
14	 C2'	-29.575	-0.412	-11.008	C.3	1	SAM4633	0.000	
15	 O2'	-30.431	-1.439	-10.582	O.3	1	SAM4633	0.000	
16	 C1'	-30.072	0.933	-10.501	C.3	1	SAM4633	0.000	
17	 OXT	-22.726	0.449	-5.238	O.co2	1	SAM4633	0.000	
18	  N1	-34.521	3.613	-10.636	N.2	1	SAM4633	0.000	
19	  C2	-33.809	3.188	-9.534	C.2	1	SAM4633	0.000	
20	  N3	-32.643	2.485	-9.715	N.2	1	SAM4633	0.000	
21	  C4	-32.188	2.211	-10.961	C.2	1	SAM4633	0.000	
22	  C5	-32.892	2.622	-12.084	C.2	1	SAM4633	0.000	
23	  C6	-34.074	3.337	-11.911	C.2	1	SAM4633	0.000	
24	  N6	-34.779	3.761	-12.955	N.pl3	1	SAM4633	0.000	
25	  N7	-32.209	2.208	-13.176	N.2	1	SAM4633	0.000	
26	  C8	-31.096	1.550	-12.770	C.2	1	SAM4633	0.000	
27	  N9	-31.082	1.538	-11.396	N.2	1	SAM4633	0.000	
@<TRIPOS>BOND
1 1 2 1
2 2 3 1
3 2 5 1
4 3 4 ar
5 3 17 ar
6 5 6 1
7 6 7 1
8 7 8 1
9 7 9 1
10 9 10 1
11 10 11 1
12 10 12 1
13 11 16 1
14 12 13 1
15 12 14 1
16 14 15 1
17 14 16 1
18 16 27 1
19 18 19 ar
20 18 23 ar
21 19 20 ar
22 20 21 ar
23 21 22 ar
24 21 27 ar
25 22 23 ar
26 22 25 ar
27 23 24 1
28 25 26 ar
29 26 27 ar
@<TRIPOS>SUBSTRUCTURE
1	SAM4633	1	GROUP	1 A	SAM
