# created with PyMOL 2.4.0
@<TRIPOS>MOLECULE
temp
50 52 1                 
SMALL
USER_CHARGES
@<TRIPOS>ATOM
1	   N	-22.971	3.652	-6.984	N.4	1	SAM1	0.000	
2	  CA	-23.404	2.248	-6.696	C.3	1	SAM1	0.000	
3	   C	-22.452	1.554	-5.737	C.2	1	SAM1	0.000	
4	   O	-21.387	2.098	-5.441	O.co2	1	SAM1	0.000	
5	  CB	-23.479	1.447	-7.986	C.3	1	SAM1	0.000	
6	  CG	-24.726	1.820	-8.774	C.3	1	SAM1	0.000	
7	  SD	-25.075	0.674	-10.114	S.3	1	SAM1	0.000	
8	  CE	-23.864	1.205	-11.356	C.3	1	SAM1	0.000	
9	 C5'	-26.589	1.384	-10.801	C.3	1	SAM1	0.000	
10	 C4'	-27.824	0.932	-10.037	C.3	1	SAM1	0.000	
11	 O4'	-28.919	1.745	-10.410	O.3	1	SAM1	0.000	
12	 C3'	-28.211	-0.507	-10.359	C.3	1	SAM1	0.000	
13	 O3'	-28.326	-1.243	-9.166	O.3	1	SAM1	0.000	
14	 C2'	-29.575	-0.412	-11.008	C.3	1	SAM1	0.000	
15	 O2'	-30.431	-1.439	-10.582	O.3	1	SAM1	0.000	
16	 C1'	-30.072	0.933	-10.501	C.3	1	SAM1	0.000	
17	 OXT	-22.726	0.449	-5.238	O.co2	1	SAM1	0.000	
18	  N1	-34.521	3.613	-10.636	N.2	1	SAM1	0.000	
19	  C2	-33.809	3.188	-9.534	C.2	1	SAM1	0.000	
20	  N3	-32.643	2.485	-9.715	N.2	1	SAM1	0.000	
21	  C4	-32.188	2.211	-10.961	C.2	1	SAM1	0.000	
22	  C5	-32.892	2.622	-12.084	C.2	1	SAM1	0.000	
23	  C6	-34.074	3.337	-11.911	C.2	1	SAM1	0.000	
24	  N6	-34.779	3.761	-12.955	N.pl3	1	SAM1	0.000	
25	  N7	-32.209	2.208	-13.176	N.2	1	SAM1	0.000	
26	  C8	-31.096	1.550	-12.770	C.2	1	SAM1	0.000	
27	  N9	-31.082	1.538	-11.396	N.2	1	SAM1	0.000	
28	  HA	-24.388	2.300	-6.231	 H	1	SAM1	0.000	
29	 HB1	-23.511	0.384	-7.747	 H	1	SAM1	0.000	
30	 HB2	-22.597	1.657	-8.590	 H	1	SAM1	0.000	
31	 HG1	-24.587	2.816	-9.195	 H	1	SAM1	0.000	
32	 HG2	-25.578	1.829	-8.094	 H	1	SAM1	0.000	
33	 HE1	-22.874	0.845	-11.076	 H	1	SAM1	0.000	
34	 HE2	-23.852	2.294	-11.410	 H	1	SAM1	0.000	
35	 HE3	-24.138	0.796	-12.328	 H	1	SAM1	0.000	
36	  H1	-22.059	3.641	-7.417	 H	1	SAM1	0.000	
37	  H2	-22.927	4.175	-6.121	 H	1	SAM1	0.000	
38	  H2	-34.165	3.406	-8.538	 H	1	SAM1	0.000	
39	  H3	-23.635	4.088	-7.608	 H	1	SAM1	0.000	
40	  H8	-30.349	1.111	-13.415	 H	1	SAM1	0.000	
41	 H1'	-30.577	0.824	-9.541	 H	1	SAM1	0.000	
42	 H2'	-29.539	-0.503	-12.094	 H	1	SAM1	0.000	
43	 H2'	-30.489	-1.391	-9.625	 H	1	SAM1	0.000	
44	 H3'	-27.474	-0.996	-10.996	 H	1	SAM1	0.000	
45	 H3'	-28.609	-2.130	-9.399	 H	1	SAM1	0.000	
46	 H4'	-27.589	1.010	-8.976	 H	1	SAM1	0.000	
47	 H61	-34.459	3.566	-13.893	 H	1	SAM1	0.000	
48	 H62	-35.634	4.278	-12.810	 H	1	SAM1	0.000	
49	H5'1	-26.684	1.072	-11.841	 H	1	SAM1	0.000	
50	H5'2	-26.522	2.471	-10.752	 H	1	SAM1	0.000	
@<TRIPOS>BOND
1 1 2 1
2 1 36 1
3 1 37 1
4 1 39 1
5 2 3 1
6 2 5 1
7 2 28 1
8 3 4 ar
9 3 17 ar
10 5 6 1
11 5 29 1
12 5 30 1
13 6 7 1
14 6 31 1
15 6 32 1
16 7 8 1
17 7 9 1
18 8 33 1
19 8 34 1
20 8 35 1
21 9 10 1
22 9 49 1
23 9 50 1
24 10 11 1
25 10 12 1
26 10 46 1
27 11 16 1
28 12 13 1
29 12 14 1
30 12 44 1
31 13 45 1
32 14 15 1
33 14 16 1
34 14 42 1
35 15 43 1
36 16 27 1
37 16 41 1
38 18 19 ar
39 18 23 ar
40 19 20 ar
41 19 38 1
42 20 21 ar
43 21 22 ar
44 21 27 ar
45 22 23 ar
46 22 25 ar
47 23 24 1
48 24 47 1
49 24 48 1
50 25 26 ar
51 26 27 ar
52 26 40 1
@<TRIPOS>SUBSTRUCTURE
1	SAM1	1	GROUP	1 A	SAM
