@<TRIPOS>MOLECULE
3ELW.A
51 53 1 0 0 
SMALL
USER_CHARGES


@<TRIPOS>ATOM
  1 N      -22.9710     3.6520    -6.9840 N.4   1 SAM  -0.8530 
  2 H1     -22.0588     3.6408    -7.4173 H     1 SAM   0.4500 
  3 H2     -22.9273     4.1746    -6.1208 H     1 SAM   0.4500 
  4 H3     -23.6349     4.0877    -7.6081 H     1 SAM   0.4500 
  5 CA     -23.4040     2.2480    -6.6960 C.3   1 SAM   0.3170 
  6 HA     -24.3883     2.3002    -6.2308 H     1 SAM   0.0800 
  7 C      -22.4520     1.5540    -5.7370 C.2   1 SAM   0.9060 
  8 O      -21.3870     2.0980    -5.4410 O.co2 1 SAM  -0.9000 
  9 CB     -23.4790     1.4470    -7.9860 C.3   1 SAM  -0.1600 
 10 HB1    -23.5106     0.3841    -7.7467 H     1 SAM   0.0800 
 11 HB2    -22.5966     1.6572    -8.5904 H     1 SAM   0.0800 
 12 CG     -24.7260     1.8200    -8.7740 C.3   1 SAM  -0.1525 
 13 HG1    -24.5865     2.8156    -9.1952 H     1 SAM   0.0800 
 14 HG2    -25.5776     1.8294    -8.0937 H     1 SAM   0.0800 
 15 SD     -25.0750     0.6740   -10.1140 S.3   1 SAM   0.9775 
 16 CE     -23.8640     1.2050   -11.3560 C.3   1 SAM  -0.2325 
 17 HE1    -22.8743     0.8445   -11.0758 H     1 SAM   0.0800 
 18 HE2    -23.8523     2.2936   -11.4099 H     1 SAM   0.0800 
 19 HE3    -24.1378     0.7960   -12.3285 H     1 SAM   0.0800 
 20 C5'    -26.5890     1.3840   -10.8010 C.3   1 SAM  -0.1525 
 21 H5'1   -26.6842     1.0722   -11.8411 H     1 SAM   0.0800 
 22 H5'2   -26.5224     2.4709   -10.7521 H     1 SAM   0.0800 
 23 C4'    -27.8240     0.9320   -10.0370 C.3   1 SAM   0.2000 
 24 H4'    -27.5891     1.0099    -8.9755 H     1 SAM   0.0800 
 25 O4'    -28.9190     1.7450   -10.4100 O.3   1 SAM  -0.5600 
 26 C3'    -28.2110    -0.5070   -10.3590 C.3   1 SAM   0.2000 
 27 H3'    -27.4740    -0.9956   -10.9964 H     1 SAM   0.0800 
 28 O3'    -28.3260    -1.2430    -9.1660 O.3   1 SAM  -0.6800 
 29 H3'    -28.6094    -2.1303    -9.3985 H     1 SAM   0.4000 
 30 C2'    -29.5750    -0.4120   -11.0080 C.3   1 SAM   0.2000 
 31 H2'    -29.5387    -0.5033   -12.0936 H     1 SAM   0.0800 
 32 O2'    -30.4310    -1.4390   -10.5820 O.3   1 SAM  -0.6800 
 33 H2'    -30.4885    -1.3907    -9.6249 H     1 SAM   0.4000 
 34 C1'    -30.0720     0.9330   -10.5010 C.3   1 SAM   0.5691 
 35 H1'    -30.5768     0.8239    -9.5411 H     1 SAM   0.0800 
 36 OXT    -22.7260     0.4490    -5.2380 O.co2 1 SAM  -0.9000 
 37 N1     -34.5210     3.6130   -10.6360 N.2   1 SAM  -0.6610 
 38 C2     -33.8090     3.1880    -9.5340 C.2   1 SAM   0.6010 
 39 H2     -34.1650     3.4059    -8.5379 H     1 SAM   0.0600 
 40 N3     -32.6430     2.4850    -9.7150 N.2   1 SAM  -0.6610 
 41 C4     -32.1880     2.2110   -10.9610 C.2   1 SAM   0.5000 
 42 C5     -32.8920     2.6220   -12.0840 C.2   1 SAM   0.4500 
 43 C6     -34.0740     3.3370   -11.9110 C.2   1 SAM   0.6110 
 44 N6     -34.7790     3.7610   -12.9550 N.2   1 SAM  -0.2000 
 45 H62    -35.6343     4.2784   -12.8103 H     1 SAM   0.4000 
 46 H61    -34.4594     3.5658   -13.8930 H     1 SAM   0.4000 
 47 N7     -32.2090     2.2080   -13.1760 N.2   1 SAM  -0.6960 
 48 C8     -31.0960     1.5500   -12.7700 C.3   1 SAM   0.4551 
 49 H81    -30.2084     2.0606   -13.1437 H     1 SAM   0.0800 
 50 H82    -31.1132     0.5277   -13.1478 H     1 SAM   0.0800 
 51 N9     -31.0820     1.5380   -11.3960 N.pl3 1 SAM  -0.7882 
@<TRIPOS>BOND
  1   1   2  1   
  2   1   3  1   
  3   1   4  1   
  4   1   5  1   
  5   5   6  1   
  6   5   7  1   
  7   5   9  1   
  8   7   8  ar  
  9   7  36  ar  
 10   9  10  1   
 11   9  11  1   
 12   9  12  1   
 13  12  13  1   
 14  12  14  1   
 15  12  15  1   
 16  15  16  1   
 17  15  20  1   
 18  16  17  1   
 19  16  18  1   
 20  16  19  1   
 21  20  21  1   
 22  20  22  1   
 23  20  23  1   
 24  23  24  1   
 25  23  25  1   
 26  23  26  1   
 27  25  34  1   
 28  26  27  1   
 29  26  28  1   
 30  26  30  1   
 31  28  29  1   
 32  30  31  1   
 33  30  32  1   
 34  30  34  1   
 35  32  33  1   
 36  34  35  1   
 37  34  51  1   
 38  37  38  2   
 39  37  43  1   
 40  38  39  1   
 41  38  40  1   
 42  40  41  2   
 43  41  42  1   
 44  41  51  1   
 45  42  43  1   
 46  42  47  2   
 47  43  44  2   
 48  44  45  1   
 49  44  46  1   
 50  47  48  1   
 51  48  49  1   
 52  48  50  1   
 53  48  51  1   
@<TRIPOS>SUBSTRUCTURE
  1 SAM  25 GROUP 4 A **** 0

# MOE 2022.02 (io_trps.svl 2020.11)
