# created with PyMOL 2.5.0
@<TRIPOS>MOLECULE
3S68
27 29 1                 
SMALL
USER_CHARGES
@<TRIPOS>ATOM
1	   N	-4.934	37.930	68.672	N.4	1	SAM228	0.000	
2	  CA	-6.051	37.146	69.278	C.3	1	SAM228	0.000	
3	   C	-5.824	35.648	69.192	C.2	1	SAM228	0.000	
4	   O	-5.293	35.167	68.174	O.co2	1	SAM228	0.000	
5	  CB	-7.432	37.434	68.629	C.3	1	SAM228	0.000	
6	  CG	-7.770	38.951	68.563	C.3	1	SAM228	0.000	
7	  SD	-9.485	39.109	67.889	S.3	1	SAM228	0.000	
8	  CE	-9.235	38.504	66.217	C.3	1	SAM228	0.000	
9	 C5'	-9.547	40.877	67.635	C.3	1	SAM228	0.000	
10	 C4'	-9.518	41.639	68.904	C.3	1	SAM228	0.000	
11	 O4'	-9.157	42.958	68.525	O.3	1	SAM228	0.000	
12	 C3'	-10.876	41.685	69.651	C.3	1	SAM228	0.000	
13	 O3'	-10.599	41.244	71.007	O.3	1	SAM228	0.000	
14	 C2'	-11.207	43.192	69.597	C.3	1	SAM228	0.000	
15	 O2'	-11.843	43.694	70.789	O.3	1	SAM228	0.000	
16	 C1'	-9.802	43.813	69.485	C.3	1	SAM228	0.000	
17	 OXT	-6.185	34.859	70.091	O.co2	1	SAM228	0.000	
18	  N1	-7.356	48.440	69.679	N.2	1	SAM228	0.000	
19	  C2	-7.303	47.403	70.554	C.2	1	SAM228	0.000	
20	  N3	-8.002	46.305	70.399	N.2	1	SAM228	0.000	
21	  C4	-8.833	46.245	69.358	C.2	1	SAM228	0.000	
22	  C5	-8.946	47.237	68.408	C.2	1	SAM228	0.000	
23	  C6	-8.172	48.397	68.628	C.2	1	SAM228	0.000	
24	  N6	-8.203	49.513	67.783	N.pl3	1	SAM228	0.000	
25	  N7	-9.859	46.886	67.445	N.2	1	SAM228	0.000	
26	  C8	-10.294	45.669	67.752	C.2	1	SAM228	0.000	
27	  N9	-9.674	45.170	68.927	N.2	1	SAM228	0.000	
@<TRIPOS>BOND
1 1 2 1
2 2 3 1
3 2 5 1
4 3 4 ar
5 3 17 ar
6 5 6 1
7 6 7 1
8 7 8 1
9 7 9 1
10 9 10 1
11 10 11 1
12 10 12 1
13 11 16 1
14 12 13 1
15 12 14 1
16 14 15 1
17 14 16 1
18 16 27 1
19 18 19 ar
20 18 23 ar
21 19 20 ar
22 20 21 ar
23 21 22 ar
24 21 27 ar
25 22 23 ar
26 22 25 ar
27 23 24 1
28 25 26 ar
29 26 27 ar
@<TRIPOS>SUBSTRUCTURE
1	SAM228	1	GROUP	1 A	SAM
