# created with PyMOL 2.4.0
@<TRIPOS>MOLECULE
temp
50 52 1                 
SMALL
USER_CHARGES
@<TRIPOS>ATOM
1	   N	-4.934	37.930	68.672	N.4	1	SAM1	0.000	
2	  CA	-6.051	37.146	69.278	C.3	1	SAM1	0.000	
3	   C	-5.824	35.648	69.192	C.2	1	SAM1	0.000	
4	   O	-5.293	35.167	68.174	O.co2	1	SAM1	0.000	
5	  CB	-7.432	37.434	68.629	C.3	1	SAM1	0.000	
6	  CG	-7.770	38.951	68.563	C.3	1	SAM1	0.000	
7	  SD	-9.485	39.109	67.889	S.3	1	SAM1	0.000	
8	  CE	-9.235	38.504	66.217	C.3	1	SAM1	0.000	
9	 C5'	-9.547	40.877	67.635	C.3	1	SAM1	0.000	
10	 C4'	-9.518	41.639	68.904	C.3	1	SAM1	0.000	
11	 O4'	-9.157	42.958	68.525	O.3	1	SAM1	0.000	
12	 C3'	-10.876	41.685	69.651	C.3	1	SAM1	0.000	
13	 O3'	-10.599	41.244	71.007	O.3	1	SAM1	0.000	
14	 C2'	-11.207	43.192	69.597	C.3	1	SAM1	0.000	
15	 O2'	-11.843	43.694	70.789	O.3	1	SAM1	0.000	
16	 C1'	-9.802	43.813	69.485	C.3	1	SAM1	0.000	
17	 OXT	-6.185	34.859	70.091	O.co2	1	SAM1	0.000	
18	  N1	-7.356	48.440	69.679	N.2	1	SAM1	0.000	
19	  C2	-7.303	47.403	70.554	C.2	1	SAM1	0.000	
20	  N3	-8.002	46.305	70.399	N.2	1	SAM1	0.000	
21	  C4	-8.833	46.245	69.358	C.2	1	SAM1	0.000	
22	  C5	-8.946	47.237	68.408	C.2	1	SAM1	0.000	
23	  C6	-8.172	48.397	68.628	C.2	1	SAM1	0.000	
24	  N6	-8.203	49.513	67.783	N.pl3	1	SAM1	0.000	
25	  N7	-9.859	46.886	67.445	N.2	1	SAM1	0.000	
26	  C8	-10.294	45.669	67.752	C.2	1	SAM1	0.000	
27	  N9	-9.674	45.170	68.927	N.2	1	SAM1	0.000	
28	  HA	-6.061	37.473	70.318	 H	1	SAM1	0.000	
29	 HB1	-8.202	36.932	69.215	 H	1	SAM1	0.000	
30	 HB2	-7.429	37.035	67.615	 H	1	SAM1	0.000	
31	 HG1	-7.064	39.461	67.908	 H	1	SAM1	0.000	
32	 HG2	-7.720	39.387	69.561	 H	1	SAM1	0.000	
33	 HE1	-9.178	37.416	66.229	 H	1	SAM1	0.000	
34	 HE2	-8.306	38.912	65.818	 H	1	SAM1	0.000	
35	 HE3	-10.069	38.817	65.589	 H	1	SAM1	0.000	
36	  H1	-4.068	37.697	69.137	 H	1	SAM1	0.000	
37	  H2	-5.119	38.917	68.779	 H	1	SAM1	0.000	
38	  H2	-6.657	47.486	71.415	 H	1	SAM1	0.000	
39	  H3	-4.859	37.706	67.690	 H	1	SAM1	0.000	
40	  H8	-11.030	45.126	67.178	 H	1	SAM1	0.000	
41	 H1'	-9.410	43.892	70.499	 H	1	SAM1	0.000	
42	 H2'	-11.906	43.421	68.792	 H	1	SAM1	0.000	
43	 H2'	-12.681	43.235	70.886	 H	1	SAM1	0.000	
44	 H3'	-11.686	41.074	69.255	 H	1	SAM1	0.000	
45	 H3'	-11.402	41.361	71.520	 H	1	SAM1	0.000	
46	 H4'	-8.827	41.160	69.597	 H	1	SAM1	0.000	
47	 H61	-8.800	49.513	66.969	 H	1	SAM1	0.000	
48	 H62	-7.628	50.318	67.988	 H	1	SAM1	0.000	
49	H5'1	-10.467	41.121	67.103	 H	1	SAM1	0.000	
50	H5'2	-8.689	41.173	67.031	 H	1	SAM1	0.000	
@<TRIPOS>BOND
1 1 2 1
2 1 36 1
3 1 37 1
4 1 39 1
5 2 3 1
6 2 5 1
7 2 28 1
8 3 4 ar
9 3 17 ar
10 5 6 1
11 5 29 1
12 5 30 1
13 6 7 1
14 6 31 1
15 6 32 1
16 7 8 1
17 7 9 1
18 8 33 1
19 8 34 1
20 8 35 1
21 9 10 1
22 9 49 1
23 9 50 1
24 10 11 1
25 10 12 1
26 10 46 1
27 11 16 1
28 12 13 1
29 12 14 1
30 12 44 1
31 13 45 1
32 14 15 1
33 14 16 1
34 14 42 1
35 15 43 1
36 16 27 1
37 16 41 1
38 18 19 ar
39 18 23 ar
40 19 20 ar
41 19 38 1
42 20 21 ar
43 21 22 ar
44 21 27 ar
45 22 23 ar
46 22 25 ar
47 23 24 1
48 24 47 1
49 24 48 1
50 25 26 ar
51 26 27 ar
52 26 40 1
@<TRIPOS>SUBSTRUCTURE
1	SAM1	1	GROUP	1 A	SAM
