@<TRIPOS>MOLECULE
3S68.A
51 53 1 0 0 
SMALL
USER_CHARGES


@<TRIPOS>ATOM
  1 N       -4.9340    37.9300    68.6720 N.4   1 SAM  -0.8530 
  2 H1      -4.0682    37.6971    69.1371 H     1 SAM   0.4500 
  3 H2      -5.1187    38.9172    68.7791 H     1 SAM   0.4500 
  4 H3      -4.8595    37.7060    67.6900 H     1 SAM   0.4500 
  5 CA      -6.0510    37.1460    69.2780 C.3   1 SAM   0.3170 
  6 HA      -6.0608    37.4727    70.3178 H     1 SAM   0.0800 
  7 C       -5.8240    35.6480    69.1920 C.2   1 SAM   0.9060 
  8 O       -5.2930    35.1670    68.1740 O.co2 1 SAM  -0.9000 
  9 CB      -7.4320    37.4340    68.6290 C.3   1 SAM  -0.1600 
 10 HB1     -8.2021    36.9320    69.2147 H     1 SAM   0.0800 
 11 HB2     -7.4288    37.0347    67.6148 H     1 SAM   0.0800 
 12 CG      -7.7700    38.9510    68.5630 C.3   1 SAM  -0.1525 
 13 HG1     -7.0641    39.4615    67.9079 H     1 SAM   0.0800 
 14 HG2     -7.7205    39.3872    69.5607 H     1 SAM   0.0800 
 15 SD      -9.4850    39.1090    67.8890 S.3   1 SAM   0.9775 
 16 CE      -9.2350    38.5040    66.2170 C.3   1 SAM  -0.2325 
 17 HE1     -9.1781    37.4156    66.2292 H     1 SAM   0.0800 
 18 HE2     -8.3063    38.9120    65.8180 H     1 SAM   0.0800 
 19 HE3    -10.0689    38.8172    65.5888 H     1 SAM   0.0800 
 20 C5'     -9.5470    40.8770    67.6350 C.3   1 SAM  -0.1525 
 21 H5'1   -10.4667    41.1206    67.1031 H     1 SAM   0.0800 
 22 H5'2    -8.6890    41.1726    67.0313 H     1 SAM   0.0800 
 23 C4'     -9.5180    41.6390    68.9040 C.3   1 SAM   0.2000 
 24 H4'     -8.8266    41.1596    69.5970 H     1 SAM   0.0800 
 25 O4'     -9.1570    42.9580    68.5250 O.3   1 SAM  -0.5600 
 26 C3'    -10.8760    41.6850    69.6510 C.3   1 SAM   0.2000 
 27 H3'    -11.6865    41.0735    69.2545 H     1 SAM   0.0800 
 28 O3'    -10.5990    41.2440    71.0070 O.3   1 SAM  -0.6800 
 29 H3'    -11.4018    41.3613    71.5201 H     1 SAM   0.4000 
 30 C2'    -11.2070    43.1920    69.5970 C.3   1 SAM   0.2000 
 31 H2'    -11.9057    43.4210    68.7923 H     1 SAM   0.0800 
 32 O2'    -11.8430    43.6940    70.7890 O.3   1 SAM  -0.6800 
 33 H2'    -11.9744    44.6378    70.6724 H     1 SAM   0.4000 
 34 C1'     -9.8020    43.8130    69.4850 C.3   1 SAM   0.5691 
 35 H1'     -9.4096    43.8924    70.4988 H     1 SAM   0.0800 
 36 OXT     -6.1850    34.8590    70.0910 O.co2 1 SAM  -0.9000 
 37 N1      -7.3560    48.4400    69.6790 N.2   1 SAM  -0.6610 
 38 C2      -7.3030    47.4030    70.5540 C.2   1 SAM   0.6010 
 39 H2      -6.6567    47.4865    71.4152 H     1 SAM   0.0600 
 40 N3      -8.0020    46.3050    70.3990 N.2   1 SAM  -0.6610 
 41 C4      -8.8330    46.2450    69.3580 C.2   1 SAM   0.5000 
 42 C5      -8.9460    47.2370    68.4080 C.2   1 SAM   0.4500 
 43 C6      -8.1720    48.3970    68.6280 C.2   1 SAM   0.6110 
 44 N6      -8.2030    49.5130    67.7830 N.2   1 SAM  -0.2000 
 45 H62     -7.6278    50.3176    67.9878 H     1 SAM   0.4000 
 46 H61     -8.8005    49.5134    66.9687 H     1 SAM   0.4000 
 47 N7      -9.8590    46.8860    67.4450 N.2   1 SAM  -0.6960 
 48 C8     -10.2940    45.6690    67.7520 C.3   1 SAM   0.4551 
 49 H81    -10.0737    44.9959    66.9235 H     1 SAM   0.0800 
 50 H82    -11.3716    45.7089    67.9111 H     1 SAM   0.0800 
 51 N9      -9.6740    45.1700    68.9270 N.pl3 1 SAM  -0.7882 
@<TRIPOS>BOND
  1   1   2  1   
  2   1   3  1   
  3   1   4  1   
  4   1   5  1   
  5   5   6  1   
  6   5   7  1   
  7   5   9  1   
  8   7   8  ar  
  9   7  36  ar  
 10   9  10  1   
 11   9  11  1   
 12   9  12  1   
 13  12  13  1   
 14  12  14  1   
 15  12  15  1   
 16  15  16  1   
 17  15  20  1   
 18  16  17  1   
 19  16  18  1   
 20  16  19  1   
 21  20  21  1   
 22  20  22  1   
 23  20  23  1   
 24  23  24  1   
 25  23  25  1   
 26  23  26  1   
 27  25  34  1   
 28  26  27  1   
 29  26  28  1   
 30  26  30  1   
 31  28  29  1   
 32  30  31  1   
 33  30  32  1   
 34  30  34  1   
 35  32  33  1   
 36  34  35  1   
 37  34  51  1   
 38  37  38  2   
 39  37  43  1   
 40  38  39  1   
 41  38  40  1   
 42  40  41  2   
 43  41  42  1   
 44  41  51  1   
 45  42  43  1   
 46  42  47  2   
 47  43  44  2   
 48  44  45  1   
 49  44  46  1   
 50  47  48  1   
 51  48  49  1   
 52  48  50  1   
 53  48  51  1   
@<TRIPOS>SUBSTRUCTURE
  1 SAM  25 GROUP 4 A **** 0

# MOE 2022.02 (io_trps.svl 2020.11)
