# created with PyMOL 2.5.0
@<TRIPOS>MOLECULE
3S68
31 32 1                 
SMALL
USER_CHARGES
@<TRIPOS>ATOM
1	  C1	-10.177	37.724	63.113	C.2	1	TCW227	0.000	
2	  C2	-10.094	36.435	62.625	C.2	1	TCW227	0.000	
3	  C3	-11.204	35.881	61.937	C.2	1	TCW227	0.000	
4	  C4	-12.398	36.653	61.819	C.2	1	TCW227	0.000	
5	  C5	-12.472	37.953	62.331	C.2	1	TCW227	0.000	
6	  C6	-11.361	38.498	62.978	C.2	1	TCW227	0.000	
7	  O7	-8.927	35.718	62.792	O.3	1	TCW227	0.000	
8	  O8	-9.072	38.239	63.736	O.3	1	TCW227	0.000	
9	  N9	-11.461	39.815	63.494	N.2	1	TCW227	0.000	
10	 O10	-10.576	40.339	64.197	O.2	1	TCW227	0.000	
11	 O11	-12.481	40.454	63.254	O.2	1	TCW227	0.000	
12	 C12	-13.559	36.075	61.064	C.2	1	TCW227	0.000	
13	 O13	-13.317	35.233	60.203	O.2	1	TCW227	0.000	
14	 C14	-14.951	36.570	61.270	C.2	1	TCW227	0.000	
15	 C15	-15.461	36.779	62.558	C.2	1	TCW227	0.000	
16	 C16	-16.769	37.259	62.707	C.2	1	TCW227	0.000	
17	 C17	-17.540	37.530	61.565	C.2	1	TCW227	0.000	
18	 C18	-17.015	37.333	60.281	C.2	1	TCW227	0.000	
19	 C19	-15.712	36.858	60.125	C.2	1	TCW227	0.000	
20	 C20	-18.946	38.055	61.721	C.3	1	TCW227	0.000	
21	 HO7	-9.044	35.102	63.422	 H	1	TCW227	0.000	
22	 HO8	-8.400	38.288	63.155	 H	1	TCW227	0.000	
23	  H3	-11.164	34.974	61.582	 H	1	TCW227	0.000	
24	  H5	-13.280	38.482	62.213	 H	1	TCW227	0.000	
25	 H15	-14.917	36.581	63.341	 H	1	TCW227	0.000	
26	 H16	-17.142	37.400	63.596	 H	1	TCW227	0.000	
27	 H18	-17.560	37.529	59.496	 H	1	TCW227	0.000	
28	 H19	-15.342	36.713	59.235	 H	1	TCW227	0.000	
29	 H20	-19.033	38.501	62.585	 H	1	TCW227	0.000	
30	H20A	-19.138	38.691	61.006	 H	1	TCW227	0.000	
31	H20B	-19.578	37.313	61.673	 H	1	TCW227	0.000	
@<TRIPOS>BOND
1 1 2 ar
2 1 6 ar
3 1 8 1
4 2 3 ar
5 2 7 1
6 3 4 ar
7 3 23 1
8 4 5 ar
9 4 12 1
10 5 6 ar
11 5 24 1
12 6 9 1
13 7 21 1
14 8 22 1
15 9 10 ar
16 9 11 ar
17 12 13 2
18 12 14 1
19 14 15 ar
20 14 19 ar
21 15 16 ar
22 15 25 1
23 16 17 ar
24 16 26 1
25 17 18 ar
26 17 20 1
27 18 19 ar
28 18 27 1
29 19 28 1
30 20 29 1
31 20 30 1
32 20 31 1
@<TRIPOS>SUBSTRUCTURE
1	TCW227	1	GROUP	1 A	TCW
