@<TRIPOS>MOLECULE
3S68.A
30 31 1 0 0 
SMALL
USER_CHARGES


@<TRIPOS>ATOM
  1 C1     -10.1770    37.7240    63.1130 C.ar  1 TCW  -0.1710 
  2 C2     -10.0940    36.4350    62.6250 C.ar  1 TCW   0.0825 
  3 C3     -11.2040    35.8810    61.9370 C.ar  1 TCW  -0.1500 
  4 C4     -12.3980    36.6530    61.8190 C.ar  1 TCW   0.0862 
  5 C5     -12.4720    37.9530    62.3310 C.ar  1 TCW  -0.1500 
  6 C6     -11.3610    38.4980    62.9780 C.ar  1 TCW   0.1330 
  7 O7      -8.9270    35.7180    62.7920 O.3   1 TCW  -0.5325 
  8 H7      -8.2333    36.1778    63.2706 H     1 TCW   0.4500 
  9 O8      -9.0720    38.2390    63.7360 O.3   1 TCW  -0.8290 
 10 N9     -11.4610    39.8150    63.4940 N.pl3 1 TCW   0.9070 
 11 O10    -10.5760    40.3390    64.1970 O.2   1 TCW  -0.5200 
 12 O11    -12.4810    40.4540    63.2540 O.2   1 TCW  -0.5200 
 13 C12    -13.5590    36.0750    61.0640 C.2   1 TCW   0.3976 
 14 O13    -13.3170    35.2330    60.2030 O.2   1 TCW  -0.5700 
 15 C14    -14.9510    36.5700    61.2700 C.ar  1 TCW   0.0862 
 16 C15    -15.4610    36.7790    62.5580 C.ar  1 TCW  -0.1500 
 17 C16    -16.7690    37.2590    62.7070 C.ar  1 TCW  -0.1500 
 18 C17    -17.5400    37.5300    61.5650 C.ar  1 TCW  -0.1435 
 19 C18    -17.0150    37.3330    60.2810 C.ar  1 TCW  -0.1500 
 20 C19    -15.7120    36.8580    60.1250 C.ar  1 TCW  -0.1500 
 21 C20    -18.9460    38.0550    61.7210 C.3   1 TCW  -0.0965 
 22 H3     -11.1640    34.9740    61.5820 H     1 TCW   0.1500 
 23 H5     -13.2800    38.4820    62.2130 H     1 TCW   0.1500 
 24 H15    -14.9170    36.5810    63.3410 H     1 TCW   0.1500 
 25 H16    -17.1420    37.4000    63.5960 H     1 TCW   0.1500 
 26 H18    -17.5600    37.5290    59.4960 H     1 TCW   0.1500 
 27 H19    -15.3420    36.7130    59.2350 H     1 TCW   0.1500 
 28 H20    -19.0330    38.5010    62.5850 H     1 TCW   0.0800 
 29 H20A   -19.1380    38.6910    61.0060 H     1 TCW   0.0800 
 30 H20B   -19.5780    37.3130    61.6730 H     1 TCW   0.0800 
@<TRIPOS>BOND
  1   1   2  ar  
  2   1   6  ar  
  3   1   9  1   
  4   2   3  ar  
  5   2   7  1   
  6   3   4  ar  
  7   3  22  1   
  8   4   5  ar  
  9   4  13  1   
 10   5   6  ar  
 11   5  23  1   
 12   6  10  1   
 13   7   8  1   
 14  10  11  2   
 15  10  12  2   
 16  13  14  2   
 17  13  15  1   
 18  15  16  ar  
 19  15  20  ar  
 20  16  17  ar  
 21  16  24  1   
 22  17  18  ar  
 23  17  25  1   
 24  18  19  ar  
 25  18  21  1   
 26  19  20  ar  
 27  19  26  1   
 28  20  27  1   
 29  21  28  1   
 30  21  29  1   
 31  21  30  1   
@<TRIPOS>SUBSTRUCTURE
  1 TCW   5 GROUP 4 A **** 0

# MOE 2022.02 (io_trps.svl 2020.11)
