# created with PyMOL 2.4.0
@<TRIPOS>MOLECULE
3S68.A
30 31 1                 
SMALL
USER_CHARGES
@<TRIPOS>ATOM
1	  C1	-10.177	37.724	63.113	C.2	1	TCW1	-0.171	
2	  C2	-10.094	36.435	62.625	C.2	1	TCW1	0.083	
3	  C3	-11.204	35.881	61.937	C.2	1	TCW1	-0.150	
4	  C4	-12.398	36.653	61.819	C.2	1	TCW1	0.086	
5	  C5	-12.472	37.953	62.331	C.2	1	TCW1	-0.150	
6	  C6	-11.361	38.498	62.978	C.2	1	TCW1	0.133	
7	  O7	-8.927	35.718	62.792	O.3	1	TCW1	-0.533	
8	  O8	-9.072	38.239	63.736	O.2	1	TCW1	-0.829	
9	  N9	-11.461	39.815	63.494	N.pl3	1	TCW1	0.907	
10	 O10	-10.576	40.339	64.197	O.2	1	TCW1	-0.520	
11	 O11	-12.481	40.454	63.254	O.3	1	TCW1	-0.520	
12	 C12	-13.559	36.075	61.064	C.2	1	TCW1	0.398	
13	 O13	-13.317	35.233	60.203	O.2	1	TCW1	-0.570	
14	 C14	-14.951	36.570	61.270	C.2	1	TCW1	0.086	
15	 C15	-15.461	36.779	62.558	C.2	1	TCW1	-0.150	
16	 C16	-16.769	37.259	62.707	C.2	1	TCW1	-0.150	
17	 C17	-17.540	37.530	61.565	C.2	1	TCW1	-0.144	
18	 C18	-17.015	37.333	60.281	C.2	1	TCW1	-0.150	
19	 C19	-15.712	36.858	60.125	C.2	1	TCW1	-0.150	
20	 C20	-18.946	38.055	61.721	C.3	1	TCW1	-0.097	
21	  H3	-11.164	34.974	61.582	 H	1	TCW1	0.150	
22	  H5	-13.280	38.482	62.213	 H	1	TCW1	0.150	
23	  H7	-8.233	36.178	63.271	 H	1	TCW1	0.450	
24	 H15	-14.917	36.581	63.341	 H	1	TCW1	0.150	
25	 H16	-17.142	37.400	63.596	 H	1	TCW1	0.150	
26	 H18	-17.560	37.529	59.496	 H	1	TCW1	0.150	
27	 H19	-15.342	36.713	59.235	 H	1	TCW1	0.150	
28	 H20	-19.033	38.501	62.585	 H	1	TCW1	0.080	
29	H20A	-19.138	38.691	61.006	 H	1	TCW1	0.080	
30	H20B	-19.578	37.313	61.673	 H	1	TCW1	0.080	
@<TRIPOS>BOND
1 1 2 ar
2 1 6 ar
3 1 8 1
4 2 3 ar
5 2 7 1
6 3 4 ar
7 3 21 1
8 4 5 ar
9 4 12 1
10 5 6 ar
11 5 22 1
12 6 9 1
13 7 23 1
14 9 10 2
15 12 13 2
16 12 14 1
17 14 15 ar
18 14 19 ar
19 15 16 ar
20 15 24 1
21 16 17 ar
22 16 25 1
23 17 18 ar
24 17 20 1
25 18 19 ar
26 18 26 1
27 19 27 1
28 20 28 1
29 20 29 1
30 20 30 1
31 9 11 1
@<TRIPOS>SUBSTRUCTURE
1	TCW1	1	GROUP	1 A	TCW
