# created with PyMOL 2.5.2
@<TRIPOS>MOLECULE
protonated
29 30 1
SMALL
USER_CHARGES
@<TRIPOS>ATOM
1	  C1	-10.177	37.724	63.113	C.2	1	TCW1	0.000
2	  C2	-10.094	36.435	62.625	C.2	1	TCW1	0.000
3	  C3	-11.204	35.881	61.937	C.2	1	TCW1	0.000
4	  C4	-12.398	36.653	61.819	C.2	1	TCW1	0.000
5	  C5	-12.472	37.953	62.331	C.2	1	TCW1	0.000
6	  C6	-11.361	38.498	62.978	C.2	1	TCW1	0.000
7	  O7	-8.927	35.718	62.792	O.2	1	TCW1	0.000
8	  O8	-9.072	38.239	63.736	O.2	1	TCW1	0.000
9	  N9	-11.461	39.815	63.494	N.pl3	1	TCW1	0.000
10	 O10	-10.576	40.339	64.197	O.2	1	TCW1	0.000
11	 O11	-12.481	40.454	63.254	O.2	1	TCW1	0.000
12	 C12	-13.559	36.075	61.064	C.3	1	TCW1	0.000
13	 O13	-13.317	35.233	60.203	 O	1	TCW1	0.000
14	 C14	-14.951	36.570	61.270	C.2	1	TCW1	0.000
15	 C15	-15.461	36.779	62.558	C.2	1	TCW1	0.000
16	 C16	-16.769	37.259	62.707	C.2	1	TCW1	0.000
17	 C17	-17.540	37.530	61.565	C.2	1	TCW1	0.000
18	 C18	-17.015	37.333	60.281	C.2	1	TCW1	0.000
19	 C19	-15.712	36.858	60.125	C.2	1	TCW1	0.000
20	 C20	-18.946	38.055	61.721	C.3	1	TCW1	0.000
21	  H3	-11.164	34.974	61.582	 H	1	TCW1	0.000
22	  H5	-13.280	38.482	62.213	 H	1	TCW1	0.000
23	 H15	-14.917	36.581	63.341	 H	1	TCW1	0.000
24	 H16	-17.142	37.400	63.596	 H	1	TCW1	0.000
25	 H18	-17.560	37.529	59.496	 H	1	TCW1	0.000
26	 H19	-15.342	36.713	59.235	 H	1	TCW1	0.000
27	 H20	-19.033	38.501	62.585	 H	1	TCW1	0.000
28	H20A	-19.138	38.691	61.006	 H	1	TCW1	0.000
29	H20B	-19.578	37.313	61.673	 H	1	TCW1	0.000
@<TRIPOS>BOND
1 1 2 1
2 1 8 1
3 2 7 1
4 3 4 1
5 3 21 1
6 4 12 1
7 5 6 1
8 5 22 1
9 6 9 1
10 9 10 1
11 12 13 2
12 12 14 1
13 14 15 1
14 15 23 1
15 16 17 1
16 16 24 1
17 17 20 1
18 18 19 1
19 18 25 1
20 19 26 1
21 20 27 1
22 20 28 1
23 20 29 1
24 17 18 2
25 15 16 2
26 14 19 2
27 4 5 2
28 1 6 2
29 2 3 2
30 9 11 2
@<TRIPOS>SUBSTRUCTURE
1	TCW1	1	GROUP	1 B	TCW
