@<TRIPOS>MOLECULE
7T7L.C
80 83 1 0 0 
SMALL
USER_CHARGES


@<TRIPOS>ATOM
  1 C1      18.1430    25.6850    19.1920 C.3   1 G4R  -0.2400 
  2 H11     17.5166    25.1734    19.9227 H     1 G4R   0.0800 
  3 H12     17.5116    26.1569    18.4391 H     1 G4R   0.0800 
  4 H13     18.7398    26.4461    19.6946 H     1 G4R   0.0800 
  5 N1      21.3140    25.4680    17.8580 N.am  1 G4R  -0.5470 
  6 H1      21.6369    25.1810    18.7709 H     1 G4R   0.3700 
  7 O1      19.4590    25.6670    16.5000 O.2   1 G4R  -0.5700 
  8 C2      18.9410    24.8140    18.6120 C.3   1 G4R  -0.0990 
  9 H21     18.3137    24.0592    18.1378 H     1 G4R   0.0800 
 10 H22     19.5419    24.3485    19.3933 H     1 G4R   0.0800 
 11 N2      23.5880    25.9660    17.2230 N.ar  1 G4R  -0.6200 
 12 O2      25.5680    28.5070    12.0720 O.3   1 G4R  -0.3625 
 13 C3      19.9000    25.3470    17.5510 C.2   1 G4R   0.5690 
 14 N3      25.9430    26.3850    16.7860 N.pl3 1 G4R  -0.8691 
 15 H3      26.6472    26.5337    16.0774 H     1 G4R   0.4000 
 16 O3      22.8330    28.5530    11.4280 O.3   1 G4R  -0.3625 
 17 C4      22.2890    25.9870    16.9030 C.ar  1 G4R   0.7370 
 18 N4      27.8780    25.9460    20.6020 N.4   1 G4R  -0.9590 
 19 H4      27.2816    25.2019    20.9348 H     1 G4R   0.4500 
 20 C5      24.5320    26.4290    16.4070 C.ar  1 G4R   0.4100 
 21 N5      22.5140    27.5240     7.6620 N.4   1 G4R  -0.9590 
 22 H5      22.6377    28.2446     6.9652 H     1 G4R   0.4500 
 23 C6      26.3860    26.1170    18.2420 C.3   1 G4R   0.2891 
 24 H6      25.5899    25.6263    18.8019 H     1 G4R   0.0800 
 25 N6      21.8950    26.4910    15.7380 N.ar  1 G4R  -0.6200 
 26 C7      26.6850    27.3560    18.9130 C.3   1 G4R  -0.1600 
 27 H71     25.8279    28.0251    18.8365 H     1 G4R   0.0800 
 28 H72     27.5522    27.8213    18.4444 H     1 G4R   0.0800 
 29 C8      26.9880    27.0860    20.3860 C.3   1 G4R   0.3430 
 30 H81     27.4569    27.9741    20.8096 H     1 G4R   0.0800 
 31 H82     26.0473    26.8910    20.9010 H     1 G4R   0.0800 
 32 C9      28.6930    26.2170    21.4360 C.3   1 G4R   0.4230 
 33 H9      28.8415    27.2959    21.4810 H     1 G4R   0.0800 
 34 C10     30.0700    25.6310    21.1020 C.3   1 G4R  -0.2400 
 35 H101    29.9975    24.5452    21.0404 H     1 G4R   0.0800 
 36 H102    30.7801    25.9041    21.8826 H     1 G4R   0.0800 
 37 H103    30.4112    26.0272    20.1456 H     1 G4R   0.0800 
 38 C11     28.1610    25.7010    22.7760 C.3   1 G4R  -0.2400 
 39 H111    28.0168    24.6221    22.7185 H     1 G4R   0.0800 
 40 H112    27.2094    26.1834    22.9992 H     1 G4R   0.0800 
 41 H113    28.8782    25.9302    23.5642 H     1 G4R   0.0800 
 42 C12     28.4710    25.3580    19.4170 C.3   1 G4R   0.3430 
 43 H121    28.7898    24.3475    19.6728 H     1 G4R   0.0800 
 44 H122    29.3417    25.9571    19.1504 H     1 G4R   0.0800 
 45 C13     27.5780    25.2640    18.1840 C.3   1 G4R  -0.1600 
 46 H131    28.1652    25.5549    17.3130 H     1 G4R   0.0800 
 47 H132    27.2535    24.2292    18.0743 H     1 G4R   0.0800 
 48 C14     24.1220    26.9700    15.1380 C.ar  1 G4R  -0.0000 
 49 C15     25.0690    27.4850    14.2030 C.ar  1 G4R  -0.1500 
 50 H15     26.1230    27.4727    14.4384 H     1 G4R   0.1500 
 51 C16     24.6310    28.0050    12.9830 C.ar  1 G4R   0.0825 
 52 C17     26.8260    28.7540    12.6370 C.3   1 G4R   0.0400 
 53 H171    27.4985    29.1410    11.8714 H     1 G4R   0.0800 
 54 H172    27.2312    27.8264    13.0413 H     1 G4R   0.0800 
 55 H173    26.7271    29.4868    13.4378 H     1 G4R   0.0800 
 56 C18     23.2630    28.0230    12.6680 C.ar  1 G4R   0.0825 
 57 C19     21.6120    28.0290    10.9680 C.3   1 G4R   0.1200 
 58 H191    20.7868    28.4595    11.5353 H     1 G4R   0.0800 
 59 H192    21.6065    26.9453    11.0845 H     1 G4R   0.0800 
 60 C20     21.4720    28.3950     9.4840 C.3   1 G4R  -0.1600 
 61 H201    21.2694    29.4627     9.3997 H     1 G4R   0.0800 
 62 H202    20.6416    27.8328     9.0569 H     1 G4R   0.0800 
 63 C21     22.7450    28.0680     8.7070 C.3   1 G4R   0.3430 
 64 H211    23.2822    28.9953     8.5082 H     1 G4R   0.0800 
 65 H212    23.3672    27.4107     9.3143 H     1 G4R   0.0800 
 66 C22     23.2790    26.5170     7.5060 C.3   1 G4R   0.3430 
 67 H221    23.3918    25.9664     8.4399 H     1 G4R   0.0800 
 68 H222    24.2602    26.8265     7.1460 H     1 G4R   0.0800 
 69 C23     22.5140    25.6210     6.3970 C.3   1 G4R  -0.1600 
 70 H231    22.8618    24.5887     6.4366 H     1 G4R   0.0800 
 71 H232    22.6852    26.0240     5.3988 H     1 G4R   0.0800 
 72 C24     21.2920    25.6840     6.6920 C.3   1 G4R  -0.1600 
 73 H241    20.9856    24.7847     7.2262 H     1 G4R   0.0800 
 74 H242    20.6907    25.7931     5.7894 H     1 G4R   0.0800 
 75 C25     21.1290    26.9300     7.6000 C.3   1 G4R   0.3430 
 76 H251    20.4239    27.6373     7.1634 H     1 G4R   0.0800 
 77 H252    20.7866    26.6423     8.5940 H     1 G4R   0.0800 
 78 C26     22.3370    27.5210    13.5790 C.ar  1 G4R  -0.1500 
 79 H26     21.2831    27.5335    13.3435 H     1 G4R   0.1500 
 80 C27     22.7890    26.9870    14.8320 C.ar  1 G4R   0.3100 
@<TRIPOS>BOND
  1   1   2  1   
  2   1   3  1   
  3   1   4  1   
  4   1   8  1   
  5   5   6  1   
  6   5  13  am  
  7   5  17  1   
  8   7  13  2   
  9   8   9  1   
 10   8  10  1   
 11   8  13  1   
 12  11  17  ar  
 13  11  20  ar  
 14  12  51  1   
 15  12  52  1   
 16  14  15  1   
 17  14  20  1   
 18  14  23  1   
 19  16  56  1   
 20  16  57  1   
 21  17  25  ar  
 22  18  19  1   
 23  18  29  1   
 24  18  32  1   
 25  18  42  1   
 26  20  48  ar  
 27  21  22  1   
 28  21  63  1   
 29  21  66  1   
 30  21  75  1   
 31  23  24  1   
 32  23  26  1   
 33  23  45  1   
 34  25  80  ar  
 35  26  27  1   
 36  26  28  1   
 37  26  29  1   
 38  29  30  1   
 39  29  31  1   
 40  32  33  1   
 41  32  34  1   
 42  32  38  1   
 43  34  35  1   
 44  34  36  1   
 45  34  37  1   
 46  38  39  1   
 47  38  40  1   
 48  38  41  1   
 49  42  43  1   
 50  42  44  1   
 51  42  45  1   
 52  45  46  1   
 53  45  47  1   
 54  48  49  ar  
 55  48  80  ar  
 56  49  50  1   
 57  49  51  ar  
 58  51  56  ar  
 59  52  53  1   
 60  52  54  1   
 61  52  55  1   
 62  56  78  ar  
 63  57  58  1   
 64  57  59  1   
 65  57  60  1   
 66  60  61  1   
 67  60  62  1   
 68  60  63  1   
 69  63  64  1   
 70  63  65  1   
 71  66  67  1   
 72  66  68  1   
 73  66  69  1   
 74  69  70  1   
 75  69  71  1   
 76  69  72  1   
 77  72  73  1   
 78  72  74  1   
 79  72  75  1   
 80  75  76  1   
 81  75  77  1   
 82  78  79  1   
 83  78  80  ar  
@<TRIPOS>SUBSTRUCTURE
  1 G4R  48 GROUP 4 C **** 0

# MOE 2022.02 (io_trps.svl 2020.11)
