# created with PyMOL 2.5.0
@<TRIPOS>MOLECULE
7T7L
36 40 1                 
SMALL
USER_CHARGES
@<TRIPOS>ATOM
1	  C1	18.143	25.685	19.192	C.3	1	G4R1506	0.000	
2	  N1	21.314	25.468	17.858	N.pl3	1	G4R1506	0.000	
3	  O1	19.459	25.667	16.500	O.2	1	G4R1506	0.000	
4	  C2	18.941	24.814	18.612	C.3	1	G4R1506	0.000	
5	  N2	23.588	25.966	17.223	N.2	1	G4R1506	0.000	
6	  O2	25.568	28.507	12.072	O.3	1	G4R1506	0.000	
7	  C3	19.900	25.347	17.551	C.2	1	G4R1506	0.000	
8	  N3	25.943	26.385	16.786	N.pl3	1	G4R1506	0.000	
9	  O3	22.833	28.553	11.428	O.3	1	G4R1506	0.000	
10	  C4	22.289	25.987	16.903	C.2	1	G4R1506	0.000	
11	  N4	27.878	25.946	20.602	N.3	1	G4R1506	0.000	
12	  C5	24.532	26.429	16.407	C.2	1	G4R1506	0.000	
13	  N5	22.514	27.524	7.662	N.3	1	G4R1506	0.000	
14	  C6	26.386	26.117	18.242	C.3	1	G4R1506	0.000	
15	  N6	21.895	26.491	15.738	N.2	1	G4R1506	0.000	
16	  C7	26.685	27.356	18.913	C.3	1	G4R1506	0.000	
17	  C8	26.988	27.086	20.386	C.3	1	G4R1506	0.000	
18	  C9	28.693	26.217	21.436	C.3	1	G4R1506	0.000	
19	 C10	30.070	25.631	21.102	C.3	1	G4R1506	0.000	
20	 C11	28.161	25.701	22.776	C.3	1	G4R1506	0.000	
21	 C12	28.471	25.358	19.417	C.3	1	G4R1506	0.000	
22	 C13	27.578	25.264	18.184	C.3	1	G4R1506	0.000	
23	 C14	24.122	26.970	15.138	C.2	1	G4R1506	0.000	
24	 C15	25.069	27.485	14.203	C.2	1	G4R1506	0.000	
25	 C16	24.631	28.005	12.983	C.2	1	G4R1506	0.000	
26	 C17	26.826	28.754	12.637	C.3	1	G4R1506	0.000	
27	 C18	23.263	28.023	12.668	C.2	1	G4R1506	0.000	
28	 C19	21.612	28.029	10.968	C.3	1	G4R1506	0.000	
29	 C20	21.472	28.395	9.484	C.3	1	G4R1506	0.000	
30	 C21	22.745	28.068	8.707	C.3	1	G4R1506	0.000	
31	 C22	23.279	26.517	7.506	C.3	1	G4R1506	0.000	
32	 C23	22.514	25.621	6.397	C.3	1	G4R1506	0.000	
33	 C24	21.292	25.684	6.692	C.3	1	G4R1506	0.000	
34	 C25	21.129	26.930	7.600	C.3	1	G4R1506	0.000	
35	 C26	22.337	27.521	13.579	C.2	1	G4R1506	0.000	
36	 C27	22.789	26.987	14.832	C.2	1	G4R1506	0.000	
@<TRIPOS>BOND
1 1 4 1
2 2 7 1
3 2 10 1
4 3 7 2
5 4 7 1
6 5 10 ar
7 5 12 ar
8 6 25 1
9 6 26 1
10 8 12 1
11 8 14 1
12 9 27 1
13 9 28 1
14 10 15 ar
15 11 17 1
16 11 18 1
17 11 21 1
18 12 23 ar
19 13 30 1
20 13 31 1
21 13 34 1
22 14 16 1
23 14 22 1
24 15 36 ar
25 16 17 1
26 18 19 1
27 18 20 1
28 21 22 1
29 23 24 ar
30 23 36 ar
31 24 25 ar
32 25 27 ar
33 27 35 ar
34 28 29 1
35 29 30 1
36 30 31 1
37 31 32 1
38 32 33 1
39 33 34 1
40 35 36 ar
@<TRIPOS>SUBSTRUCTURE
1	G4R1506	1	GROUP	1 C	G4R
