# created with PyMOL 2.5.2
@<TRIPOS>MOLECULE
7T7L
36 39 1                 
SMALL
USER_CHARGES
@<TRIPOS>ATOM
1	  C1	-1.776	-10.180	17.517	C.3	1	G5U1506	0.000	
2	  C2	-1.768	-11.482	18.355	C.3	1	G5U1506	0.000	
3	  C3	-2.880	-12.401	17.815	C.2	1	G5U1506	0.000	
4	  O4	-2.637	-13.523	17.547	O.2	1	G5U1506	0.000	
5	  N5	-4.224	-11.807	17.677	N.pl3	1	G5U1506	0.000	
6	  C6	-5.361	-12.577	17.108	C.2	1	G5U1506	0.000	
7	  N7	-6.493	-12.928	17.771	N.2	1	G5U1506	0.000	
8	  C8	-7.472	-13.612	17.109	C.2	1	G5U1506	0.000	
9	  N9	-8.729	-14.055	17.799	N.pl3	1	G5U1506	0.000	
10	 C10	-9.679	-13.187	18.686	C.3	1	G5U1506	0.000	
11	 C11	-9.611	-11.764	18.469	C.3	1	G5U1506	0.000	
12	 C12	-10.510	-11.009	19.457	C.3	1	G5U1506	0.000	
13	 N13	-11.323	-11.957	20.222	N.3	1	G5U1506	0.000	
14	 C14	-12.204	-11.441	20.867	C.3	1	G5U1506	0.000	
15	 C15	-12.653	-12.356	22.007	C.3	1	G5U1506	0.000	
16	 C16	-11.818	-10.023	21.338	C.3	1	G5U1506	0.000	
17	 C17	-10.481	-12.806	21.008	C.3	1	G5U1506	0.000	
18	 C18	-9.576	-13.621	20.089	C.3	1	G5U1506	0.000	
19	 C19	-7.272	-13.947	15.710	C.2	1	G5U1506	0.000	
20	 C20	-8.219	-14.668	14.912	C.2	1	G5U1506	0.000	
21	 C21	-7.930	-14.936	13.549	C.2	1	G5U1506	0.000	
22	 O22	-8.861	-15.639	12.785	O.3	1	G5U1506	0.000	
23	 C23	-10.187	-15.320	13.086	C.3	1	G5U1506	0.000	
24	 C24	-6.722	-14.509	12.954	C.2	1	G5U1506	0.000	
25	 O25	-6.416	-14.767	11.579	O.3	1	G5U1506	0.000	
26	 C26	-5.035	-15.010	11.304	C.3	1	G5U1506	0.000	
27	 C27	-4.740	-14.496	9.884	C.3	1	G5U1506	0.000	
28	 C28	-5.959	-14.667	8.965	C.3	1	G5U1506	0.000	
29	 N29	-5.963	-13.924	8.054	N.3	1	G5U1506	0.000	
30	 C30	-4.615	-13.094	7.922	C.3	1	G5U1506	0.000	
31	 C31	-4.925	-12.054	7.167	C.3	1	G5U1506	0.000	
32	 C32	-6.372	-11.836	7.355	C.3	1	G5U1506	0.000	
33	 C33	-6.863	-13.060	8.195	C.3	1	G5U1506	0.000	
34	 C34	-5.805	-13.807	13.730	C.2	1	G5U1506	0.000	
35	 C35	-6.099	-13.536	15.114	C.2	1	G5U1506	0.000	
36	 N36	-5.153	-12.844	15.824	N.2	1	G5U1506	0.000	
@<TRIPOS>BOND
1 1 2 1
2 2 3 1
3 3 4 2
4 3 5 1
5 5 6 1
6 6 7 ar
7 6 36 ar
8 7 8 ar
9 8 9 1
10 8 19 ar
11 9 10 1
12 10 11 1
13 10 18 1
14 11 12 1
15 12 13 1
16 13 14 1
17 13 17 1
18 14 15 1
19 14 16 1
20 17 18 1
21 19 20 ar
22 19 35 ar
23 20 21 ar
24 21 22 1
25 21 24 ar
26 22 23 1
27 24 25 1
28 24 34 ar
29 25 26 1
30 26 27 1
31 27 28 1
32 28 29 1
33 29 30 1
34 29 33 1
35 30 31 1
36 31 32 1
37 32 33 1
38 34 35 ar
39 35 36 ar
@<TRIPOS>SUBSTRUCTURE
1	G5U1506	1	GROUP	1 A	G5U
