@<TRIPOS>MOLECULE
7T7L.A
80 83 1 0 0 
SMALL
USER_CHARGES


@<TRIPOS>ATOM
  1 C1      -1.7760   -10.1800    17.5170 C.3   1 G5U  -0.2400 
  2 H11     -0.9963    -9.5100    17.8793 H     1 G5U   0.0800 
  3 H12     -2.7465    -9.6929    17.6117 H     1 G5U   0.0800 
  4 H13     -1.5908   -10.4206    16.4701 H     1 G5U   0.0800 
  5 C2      -1.7680   -11.4820    18.3550 C.3   1 G5U  -0.0990 
  6 H21     -1.9568   -11.2489    19.4029 H     1 G5U   0.0800 
  7 H22     -0.8012   -11.9765    18.2613 H     1 G5U   0.0800 
  8 C3      -2.8800   -12.4010    17.8150 C.2   1 G5U   0.5690 
  9 O4      -2.6370   -13.5230    17.5470 O.2   1 G5U  -0.5700 
 10 N5      -4.2240   -11.8070    17.6770 N.am  1 G5U  -0.5470 
 11 H5      -4.3748   -10.8543    17.9764 H     1 G5U   0.3700 
 12 C6      -5.3610   -12.5770    17.1080 C.ar  1 G5U   0.7370 
 13 N7      -6.4930   -12.9280    17.7710 N.ar  1 G5U  -0.6200 
 14 C8      -7.4720   -13.6120    17.1090 C.ar  1 G5U   0.4100 
 15 N9      -8.7290   -14.0550    17.7990 N.pl3 1 G5U  -0.8691 
 16 H9      -8.9904   -15.0229    17.6764 H     1 G5U   0.4000 
 17 C10     -9.6790   -13.1870    18.6860 C.3   1 G5U   0.2891 
 18 H10    -10.6995   -13.3803    18.3554 H     1 G5U   0.0800 
 19 C11     -9.6110   -11.7640    18.4690 C.3   1 G5U  -0.1600 
 20 H111    -9.9361   -11.5434    17.4523 H     1 G5U   0.0800 
 21 H112    -8.5809   -11.4329    18.6010 H     1 G5U   0.0800 
 22 C12    -10.5100   -11.0090    19.4570 C.3   1 G5U   0.3430 
 23 H121   -11.1653   -10.3348    18.9056 H     1 G5U   0.0800 
 24 H122    -9.8885   -10.4322    20.1419 H     1 G5U   0.0800 
 25 N13    -11.3230   -11.9570    20.2220 N.4   1 G5U  -0.9590 
 26 H13    -11.8166   -12.5307    19.5532 H     1 G5U   0.4500 
 27 C14    -12.2040   -11.4410    20.8670 C.3   1 G5U   0.4230 
 28 H14    -13.0681   -11.3065    20.2163 H     1 G5U   0.0800 
 29 C15    -12.6530   -12.3560    22.0070 C.3   1 G5U  -0.2400 
 30 H151   -11.8194   -12.5221    22.6893 H     1 G5U   0.0800 
 31 H152   -12.9835   -13.3107    21.5979 H     1 G5U   0.0800 
 32 H153   -13.4762   -11.8874    22.5463 H     1 G5U   0.0800 
 33 C16    -11.8180   -10.0230    21.3380 C.3   1 G5U  -0.2400 
 34 H161   -10.9530   -10.0825    21.9986 H     1 G5U   0.0800 
 35 H162   -12.6555    -9.5780    21.8753 H     1 G5U   0.0800 
 36 H163   -11.5728    -9.4069    20.4729 H     1 G5U   0.0800 
 37 C17    -10.4810   -12.8060    21.0080 C.3   1 G5U   0.3430 
 38 H171   -11.0983   -13.4808    21.6010 H     1 G5U   0.0800 
 39 H172    -9.8688   -12.1957    21.6720 H     1 G5U   0.0800 
 40 C18     -9.5760   -13.6210    20.0890 C.3   1 G5U  -0.1600 
 41 H181    -8.5435   -13.5045    20.4184 H     1 G5U   0.0800 
 42 H182    -9.8619   -14.6708    20.1544 H     1 G5U   0.0800 
 43 C19     -7.2720   -13.9470    15.7100 C.ar  1 G5U  -0.0000 
 44 C20     -8.2190   -14.6680    14.9120 C.ar  1 G5U  -0.1500 
 45 H20     -9.1484   -15.0058    15.3461 H     1 G5U   0.1500 
 46 C21     -7.9300   -14.9360    13.5490 C.ar  1 G5U   0.0825 
 47 O22     -8.8610   -15.6390    12.7850 O.3   1 G5U  -0.3625 
 48 C23    -10.1870   -15.3200    13.0860 C.3   1 G5U   0.0400 
 49 H231   -10.8541   -15.9051    12.4530 H     1 G5U   0.0800 
 50 H232   -10.3549   -14.2580    12.9070 H     1 G5U   0.0800 
 51 H233   -10.3869   -15.5480    14.1330 H     1 G5U   0.0800 
 52 C24     -6.7220   -14.5090    12.9540 C.ar  1 G5U   0.0825 
 53 O25     -6.4160   -14.7670    11.5790 O.3   1 G5U  -0.3625 
 54 C26     -5.0350   -15.0100    11.3040 C.3   1 G5U   0.1200 
 55 H261    -4.8279   -16.0786    11.3619 H     1 G5U   0.0800 
 56 H262    -4.4143   -14.4800    12.0265 H     1 G5U   0.0800 
 57 C27     -4.7400   -14.4960     9.8840 C.3   1 G5U  -0.1600 
 58 H271    -3.9018   -15.0567     9.4703 H     1 G5U   0.0800 
 59 H272    -4.4797   -13.4388     9.9358 H     1 G5U   0.0800 
 60 C28     -5.9590   -14.6670     8.9650 C.3   1 G5U   0.3430 
 61 H281    -6.8615   -14.4986     9.5526 H     1 G5U   0.0800 
 62 H282    -5.9613   -15.6866     8.5797 H     1 G5U   0.0800 
 63 N29     -5.9630   -13.9240     8.0540 N.4   1 G5U  -0.9590 
 64 H29     -6.0995   -14.5085     7.2417 H     1 G5U   0.4500 
 65 C30     -4.6150   -13.0940     7.9220 C.3   1 G5U   0.3430 
 66 H301    -3.8402   -13.6952     7.4463 H     1 G5U   0.0800 
 67 H302    -4.2697   -12.7661     8.9025 H     1 G5U   0.0800 
 68 C31     -4.9250   -12.0540     7.1670 C.3   1 G5U  -0.1600 
 69 H311    -4.7062   -12.2663     6.1205 H     1 G5U   0.0800 
 70 H312    -4.3646   -11.1746     7.4841 H     1 G5U   0.0800 
 71 C32     -6.3720   -11.8360     7.3550 C.3   1 G5U  -0.1600 
 72 H321    -6.8822   -11.8032     6.3924 H     1 G5U   0.0800 
 73 H322    -6.5520   -10.9055     7.8935 H     1 G5U   0.0800 
 74 C33     -6.8630   -13.0600     8.1950 C.3   1 G5U   0.3430 
 75 H331    -6.9729   -12.7869     9.2445 H     1 G5U   0.0800 
 76 H332    -7.8148   -13.4306     7.8145 H     1 G5U   0.0800 
 77 C34     -5.8050   -13.8070    13.7300 C.ar  1 G5U  -0.1500 
 78 H34     -4.8763   -13.4665    13.2964 H     1 G5U   0.1500 
 79 C35     -6.0990   -13.5360    15.1140 C.ar  1 G5U   0.3100 
 80 N36     -5.1530   -12.8440    15.8240 N.ar  1 G5U  -0.6200 
@<TRIPOS>BOND
  1   1   2  1   
  2   1   3  1   
  3   1   4  1   
  4   1   5  1   
  5   5   6  1   
  6   5   7  1   
  7   5   8  1   
  8   8   9  2   
  9   8  10  am  
 10  10  11  1   
 11  10  12  1   
 12  12  13  ar  
 13  12  80  ar  
 14  13  14  ar  
 15  14  15  1   
 16  14  43  ar  
 17  15  16  1   
 18  15  17  1   
 19  17  18  1   
 20  17  19  1   
 21  17  40  1   
 22  19  20  1   
 23  19  21  1   
 24  19  22  1   
 25  22  23  1   
 26  22  24  1   
 27  22  25  1   
 28  25  26  1   
 29  25  27  1   
 30  25  37  1   
 31  27  28  1   
 32  27  29  1   
 33  27  33  1   
 34  29  30  1   
 35  29  31  1   
 36  29  32  1   
 37  33  34  1   
 38  33  35  1   
 39  33  36  1   
 40  37  38  1   
 41  37  39  1   
 42  37  40  1   
 43  40  41  1   
 44  40  42  1   
 45  43  44  ar  
 46  43  79  ar  
 47  44  45  1   
 48  44  46  ar  
 49  46  47  1   
 50  46  52  ar  
 51  47  48  1   
 52  48  49  1   
 53  48  50  1   
 54  48  51  1   
 55  52  53  1   
 56  52  77  ar  
 57  53  54  1   
 58  54  55  1   
 59  54  56  1   
 60  54  57  1   
 61  57  58  1   
 62  57  59  1   
 63  57  60  1   
 64  60  61  1   
 65  60  62  1   
 66  60  63  1   
 67  63  64  1   
 68  63  65  1   
 69  63  74  1   
 70  65  66  1   
 71  65  67  1   
 72  65  68  1   
 73  68  69  1   
 74  68  70  1   
 75  68  71  1   
 76  71  72  1   
 77  71  73  1   
 78  71  74  1   
 79  74  75  1   
 80  74  76  1   
 81  77  78  1   
 82  77  79  ar  
 83  79  80  ar  
@<TRIPOS>SUBSTRUCTURE
  1 G5U  43 GROUP 4 A **** 0

# MOE 2022.02 (io_trps.svl 2020.11)
