# created with PyMOL 2.5.0
@<TRIPOS>MOLECULE
7T7L
27 29 1                 
SMALL
USER_CHARGES
@<TRIPOS>ATOM
1	   N	29.514	25.639	0.027	N.3	1	SAM1505	0.000	
2	  CA	29.297	24.560	0.983	C.3	1	SAM1505	0.000	
3	   C	30.141	23.335	0.649	C.2	1	SAM1505	0.000	
4	   O	30.993	23.371	-0.239	O.co2	1	SAM1505	0.000	
5	  CB	27.819	24.185	1.034	C.3	1	SAM1505	0.000	
6	  CG	26.966	25.080	1.928	C.3	1	SAM1505	0.000	
7	  SD	27.121	24.628	3.675	S.3	1	SAM1505	0.000	
8	  CE	25.383	24.471	4.160	C.3	1	SAM1505	0.000	
9	 C5'	27.526	26.213	4.446	C.3	1	SAM1505	0.000	
10	 C4'	29.011	26.532	4.353	C.3	1	SAM1505	0.000	
11	 O4'	29.322	26.961	3.039	O.3	1	SAM1505	0.000	
12	 C3'	29.417	27.652	5.298	C.3	1	SAM1505	0.000	
13	 O3'	29.948	27.145	6.499	O.3	1	SAM1505	0.000	
14	 C2'	30.469	28.404	4.519	C.3	1	SAM1505	0.000	
15	 O2'	31.738	27.860	4.798	O.3	1	SAM1505	0.000	
16	 C1'	30.117	28.128	3.074	C.3	1	SAM1505	0.000	
17	 OXT	29.996	22.281	1.269	O.co2	1	SAM1505	0.000	
18	  N1	30.183	33.077	1.350	N.2	1	SAM1505	0.000	
19	  C2	31.255	32.299	1.739	C.2	1	SAM1505	0.000	
20	  N3	31.052	31.003	2.168	N.2	1	SAM1505	0.000	
21	  C4	29.799	30.487	2.206	C.2	1	SAM1505	0.000	
22	  C5	28.709	31.255	1.824	C.2	1	SAM1505	0.000	
23	  C6	28.905	32.559	1.393	C.2	1	SAM1505	0.000	
24	  N6	27.868	33.303	1.018	N.pl3	1	SAM1505	0.000	
25	  N7	27.596	30.502	1.964	N.2	1	SAM1505	0.000	
26	  C8	27.955	29.285	2.432	C.2	1	SAM1505	0.000	
27	  N9	29.318	29.259	2.577	N.2	1	SAM1505	0.000	
@<TRIPOS>BOND
1 1 2 1
2 2 3 1
3 2 5 1
4 3 4 ar
5 3 17 ar
6 5 6 1
7 6 7 1
8 7 8 1
9 7 9 1
10 9 10 1
11 10 11 1
12 10 12 1
13 11 16 1
14 12 13 1
15 12 14 1
16 14 15 1
17 14 16 1
18 16 27 1
19 18 19 ar
20 18 23 ar
21 19 20 ar
22 20 21 ar
23 21 22 ar
24 21 27 ar
25 22 23 ar
26 22 25 ar
27 23 24 1
28 25 26 ar
29 26 27 ar
@<TRIPOS>SUBSTRUCTURE
1	SAM1505	1	GROUP	1 C	SAM
