# created with PyMOL 2.5.0
@<TRIPOS>MOLECULE
7T7L
27 29 1                 
SMALL
USER_CHARGES
@<TRIPOS>ATOM
1	   N	-14.135	-11.537	1.781	N.3	1	SAM1505	0.000	
2	  CA	-13.712	-10.388	2.574	C.3	1	SAM1505	0.000	
3	   C	-14.564	-9.156	2.292	C.2	1	SAM1505	0.000	
4	   O	-15.479	-9.191	1.469	O.co2	1	SAM1505	0.000	
5	  CB	-12.241	-10.084	2.317	C.3	1	SAM1505	0.000	
6	  CG	-11.282	-11.041	3.016	C.3	1	SAM1505	0.000	
7	  SD	-11.296	-10.793	4.809	S.3	1	SAM1505	0.000	
8	  CE	-9.523	-10.689	5.161	C.3	1	SAM1505	0.000	
9	 C5'	-11.671	-12.456	5.411	C.3	1	SAM1505	0.000	
10	 C4'	-13.168	-12.737	5.403	C.3	1	SAM1505	0.000	
11	 O4'	-13.582	-13.101	4.097	O.3	1	SAM1505	0.000	
12	 C3'	-13.542	-13.882	6.330	C.3	1	SAM1505	0.000	
13	 O3'	-14.008	-13.393	7.564	O.3	1	SAM1505	0.000	
14	 C2'	-14.645	-14.596	5.589	C.3	1	SAM1505	0.000	
15	 O2'	-15.886	-14.061	5.982	O.3	1	SAM1505	0.000	
16	 C1'	-14.393	-14.256	4.135	C.3	1	SAM1505	0.000	
17	 OXT	-14.361	-8.100	2.891	O.co2	1	SAM1505	0.000	
18	  N1	-14.479	-19.213	2.413	N.2	1	SAM1505	0.000	
19	  C2	-15.528	-18.479	2.928	C.2	1	SAM1505	0.000	
20	  N3	-15.330	-17.175	3.335	N.2	1	SAM1505	0.000	
21	  C4	-14.103	-16.608	3.226	C.2	1	SAM1505	0.000	
22	  C5	-13.037	-17.333	2.715	C.2	1	SAM1505	0.000	
23	  C6	-13.228	-18.643	2.304	C.2	1	SAM1505	0.000	
24	  N6	-12.208	-19.340	1.814	N.pl3	1	SAM1505	0.000	
25	  N7	-11.946	-16.538	2.724	N.2	1	SAM1505	0.000	
26	  C8	-12.291	-15.336	3.233	C.2	1	SAM1505	0.000	
27	  N9	-13.626	-15.362	3.541	N.2	1	SAM1505	0.000	
@<TRIPOS>BOND
1 1 2 1
2 2 3 1
3 2 5 1
4 3 4 ar
5 3 17 ar
6 5 6 1
7 6 7 1
8 7 8 1
9 7 9 1
10 9 10 1
11 10 11 1
12 10 12 1
13 11 16 1
14 12 13 1
15 12 14 1
16 14 15 1
17 14 16 1
18 16 27 1
19 18 19 ar
20 18 23 ar
21 19 20 ar
22 20 21 ar
23 21 22 ar
24 21 27 ar
25 22 23 ar
26 22 25 ar
27 23 24 1
28 25 26 ar
29 26 27 ar
@<TRIPOS>SUBSTRUCTURE
1	SAM1505	1	GROUP	1 A	SAM
