# created with PyMOL 2.4.0
@<TRIPOS>MOLECULE
temp
50 52 1                 
SMALL
USER_CHARGES
@<TRIPOS>ATOM
1	   N	-14.135	-11.537	1.781	N.4	1	SAM1	0.000	
2	  CA	-13.712	-10.388	2.574	C.3	1	SAM1	0.000	
3	   C	-14.564	-9.156	2.292	C.2	1	SAM1	0.000	
4	   O	-15.479	-9.191	1.469	O.co2	1	SAM1	0.000	
5	  CB	-12.241	-10.084	2.317	C.3	1	SAM1	0.000	
6	  CG	-11.282	-11.041	3.016	C.3	1	SAM1	0.000	
7	  SD	-11.296	-10.793	4.809	S.3	1	SAM1	0.000	
8	  CE	-9.523	-10.689	5.161	C.3	1	SAM1	0.000	
9	 C5'	-11.671	-12.456	5.411	C.3	1	SAM1	0.000	
10	 C4'	-13.168	-12.737	5.403	C.3	1	SAM1	0.000	
11	 O4'	-13.582	-13.101	4.097	O.3	1	SAM1	0.000	
12	 C3'	-13.542	-13.882	6.330	C.3	1	SAM1	0.000	
13	 O3'	-14.008	-13.393	7.564	O.3	1	SAM1	0.000	
14	 C2'	-14.645	-14.596	5.589	C.3	1	SAM1	0.000	
15	 O2'	-15.886	-14.061	5.982	O.3	1	SAM1	0.000	
16	 C1'	-14.393	-14.256	4.135	C.3	1	SAM1	0.000	
17	 OXT	-14.361	-8.100	2.891	O.co2	1	SAM1	0.000	
18	  N1	-14.479	-19.213	2.413	N.2	1	SAM1	0.000	
19	  C2	-15.528	-18.479	2.928	C.2	1	SAM1	0.000	
20	  N3	-15.330	-17.175	3.335	N.2	1	SAM1	0.000	
21	  C4	-14.103	-16.608	3.226	C.2	1	SAM1	0.000	
22	  C5	-13.037	-17.333	2.715	C.2	1	SAM1	0.000	
23	  C6	-13.228	-18.643	2.304	C.2	1	SAM1	0.000	
24	  N6	-12.208	-19.340	1.814	N.pl3	1	SAM1	0.000	
25	  N7	-11.946	-16.538	2.724	N.2	1	SAM1	0.000	
26	  C8	-12.291	-15.336	3.233	C.2	1	SAM1	0.000	
27	  N9	-13.626	-15.362	3.541	N.2	1	SAM1	0.000	
28	  HA	-13.848	-10.646	3.624	 H	1	SAM1	0.000	
29	 HB1	-12.033	-9.073	2.667	 H	1	SAM1	0.000	
30	 HB2	-12.061	-10.141	1.243	 H	1	SAM1	0.000	
31	 HG1	-10.273	-10.869	2.642	 H	1	SAM1	0.000	
32	 HG2	-11.581	-12.066	2.797	 H	1	SAM1	0.000	
33	 HE1	-9.146	-9.717	4.844	 H	1	SAM1	0.000	
34	 HE2	-8.998	-11.476	4.620	 H	1	SAM1	0.000	
35	 HE3	-9.357	-10.812	6.231	 H	1	SAM1	0.000	
36	  H1	-14.021	-11.329	0.799	 H	1	SAM1	0.000	
37	  H2	-15.106	-11.738	1.972	 H	1	SAM1	0.000	
38	  H2	-16.507	-18.926	3.013	 H	1	SAM1	0.000	
39	  H3	-13.571	-12.339	2.023	 H	1	SAM1	0.000	
40	  H8	-11.627	-14.496	3.374	 H	1	SAM1	0.000	
41	 H1'	-15.330	-14.097	3.601	 H	1	SAM1	0.000	
42	 H2'	-14.661	-15.669	5.778	 H	1	SAM1	0.000	
43	 H2'	-15.998	-14.244	6.918	 H	1	SAM1	0.000	
44	 H3'	-12.698	-14.531	6.562	 H	1	SAM1	0.000	
45	 H3'	-14.755	-12.817	7.385	 H	1	SAM1	0.000	
46	 H4'	-13.659	-11.825	5.741	 H	1	SAM1	0.000	
47	 H61	-11.295	-18.915	1.741	 H	1	SAM1	0.000	
48	 H62	-12.346	-20.295	1.514	 H	1	SAM1	0.000	
49	H5'1	-11.299	-12.554	6.431	 H	1	SAM1	0.000	
50	H5'2	-11.172	-13.184	4.771	 H	1	SAM1	0.000	
@<TRIPOS>BOND
1 1 2 1
2 1 36 1
3 1 37 1
4 1 39 1
5 2 3 1
6 2 5 1
7 2 28 1
8 3 4 ar
9 3 17 ar
10 5 6 1
11 5 29 1
12 5 30 1
13 6 7 1
14 6 31 1
15 6 32 1
16 7 8 1
17 7 9 1
18 8 33 1
19 8 34 1
20 8 35 1
21 9 10 1
22 9 49 1
23 9 50 1
24 10 11 1
25 10 12 1
26 10 46 1
27 11 16 1
28 12 13 1
29 12 14 1
30 12 44 1
31 13 45 1
32 14 15 1
33 14 16 1
34 14 42 1
35 15 43 1
36 16 27 1
37 16 41 1
38 18 19 ar
39 18 23 ar
40 19 20 ar
41 19 38 1
42 20 21 ar
43 21 22 ar
44 21 27 ar
45 22 23 ar
46 22 25 ar
47 23 24 1
48 24 47 1
49 24 48 1
50 25 26 ar
51 26 27 ar
52 26 40 1
@<TRIPOS>SUBSTRUCTURE
1	SAM1	1	GROUP	1 A	SAM
