@<TRIPOS>MOLECULE
7T7L.C
51 53 1 0 0 
SMALL
USER_CHARGES


@<TRIPOS>ATOM
  1 N       29.5140    25.6390     0.0270 N.4   1 SAM  -0.8530 
  2 H1      29.2345    25.3338    -0.8943 H     1 SAM   0.4500 
  3 H2      30.4928    25.8879     0.0167 H     1 SAM   0.4500 
  4 H3      28.9651    26.4429     0.2963 H     1 SAM   0.4500 
  5 CA      29.2970    24.5600     0.9830 C.3   1 SAM   0.3170 
  6 HA      29.6074    24.9203     1.9638 H     1 SAM   0.0800 
  7 C       30.1410    23.3350     0.6490 C.2   1 SAM   0.9060 
  8 O       30.9930    23.3710    -0.2390 O.co2 1 SAM  -0.9000 
  9 CB      27.8190    24.1850     1.0340 C.3   1 SAM  -0.1600 
 10 HB1     27.7405    23.1624     1.4030 H     1 SAM   0.0800 
 11 HB2     27.4200    24.2374     0.0210 H     1 SAM   0.0800 
 12 CG      26.9660    25.0800     1.9280 C.3   1 SAM  -0.1525 
 13 HG1     25.9219    24.9843     1.6300 H     1 SAM   0.0800 
 14 HG2     27.2867    26.1140     1.8012 H     1 SAM   0.0800 
 15 SD      27.1210    24.6280     3.6750 S.3   1 SAM   0.9775 
 16 CE      25.3830    24.4710     4.1600 C.3   1 SAM  -0.2325 
 17 HE1     24.9776    23.5404     3.7628 H     1 SAM   0.0800 
 18 HE2     24.8171    25.3132     3.7617 H     1 SAM   0.0800 
 19 HE3     25.3083    24.4649     5.2474 H     1 SAM   0.0800 
 20 C5'     27.5260    26.2130     4.4460 C.3   1 SAM  -0.1525 
 21 H5'1    27.2396    26.1759     5.4971 H     1 SAM   0.0800 
 22 H5'2    26.9651    27.0014     3.9442 H     1 SAM   0.0800 
 23 C4'     29.0110    26.5320     4.3530 C.3   1 SAM   0.2000 
 24 H4'     29.5477    25.6221     4.6215 H     1 SAM   0.0800 
 25 O4'     29.3220    26.9610     3.0390 O.3   1 SAM  -0.5600 
 26 C3'     29.4170    27.6520     5.2980 C.3   1 SAM   0.2000 
 27 H3'     28.5746    28.2768     5.5947 H     1 SAM   0.0800 
 28 O3'     29.9480    27.1450     6.4990 O.3   1 SAM  -0.6800 
 29 H3'     30.6959    26.5872     6.2731 H     1 SAM   0.4000 
 30 C2'     30.4690    28.4040     4.5190 C.3   1 SAM   0.2000 
 31 H2'     30.4975    29.4668     4.7593 H     1 SAM   0.0800 
 32 O2'     31.7380    27.8600     4.7980 O.3   1 SAM  -0.6800 
 33 H2'     31.9143    27.9984     5.7315 H     1 SAM   0.4000 
 34 C1'     30.1170    28.1280     3.0740 C.3   1 SAM   0.5691 
 35 H1'     31.0126    27.9998     2.4661 H     1 SAM   0.0800 
 36 OXT     29.9960    22.2810     1.2690 O.co2 1 SAM  -0.9000 
 37 N1      30.1830    33.0770     1.3500 N.2   1 SAM  -0.6610 
 38 C2      31.2550    32.2990     1.7390 C.2   1 SAM   0.6010 
 39 H2      32.2551    32.7055     1.7075 H     1 SAM   0.0600 
 40 N3      31.0520    31.0030     2.1680 N.2   1 SAM  -0.6610 
 41 C4      29.7990    30.4870     2.2060 C.2   1 SAM   0.5000 
 42 C5      28.7090    31.2550     1.8240 C.2   1 SAM   0.4500 
 43 C6      28.9050    32.5590     1.3930 C.2   1 SAM   0.6110 
 44 N6      27.8680    33.3030     1.0180 N.2   1 SAM  -0.2000 
 45 H62     28.0143    34.2520     0.7048 H     1 SAM   0.4000 
 46 H61     26.9343    32.9189     1.0465 H     1 SAM   0.4000 
 47 N7      27.5960    30.5020     1.9640 N.2   1 SAM  -0.6960 
 48 C8      27.9550    29.2850     2.4320 C.3   1 SAM   0.4551 
 49 H81     27.6456    28.5139     1.7265 H     1 SAM   0.0800 
 50 H82     27.4793    29.1070     3.3964 H     1 SAM   0.0800 
 51 N9      29.3180    29.2590     2.5770 N.pl3 1 SAM  -0.7882 
@<TRIPOS>BOND
  1   1   2  1   
  2   1   3  1   
  3   1   4  1   
  4   1   5  1   
  5   5   6  1   
  6   5   7  1   
  7   5   9  1   
  8   7   8  ar  
  9   7  36  ar  
 10   9  10  1   
 11   9  11  1   
 12   9  12  1   
 13  12  13  1   
 14  12  14  1   
 15  12  15  1   
 16  15  16  1   
 17  15  20  1   
 18  16  17  1   
 19  16  18  1   
 20  16  19  1   
 21  20  21  1   
 22  20  22  1   
 23  20  23  1   
 24  23  24  1   
 25  23  25  1   
 26  23  26  1   
 27  25  34  1   
 28  26  27  1   
 29  26  28  1   
 30  26  30  1   
 31  28  29  1   
 32  30  31  1   
 33  30  32  1   
 34  30  34  1   
 35  32  33  1   
 36  34  35  1   
 37  34  51  1   
 38  37  38  2   
 39  37  43  1   
 40  38  39  1   
 41  38  40  1   
 42  40  41  2   
 43  41  42  1   
 44  41  51  1   
 45  42  43  1   
 46  42  47  2   
 47  43  44  2   
 48  44  45  1   
 49  44  46  1   
 50  47  48  1   
 51  48  49  1   
 52  48  50  1   
 53  48  51  1   
@<TRIPOS>SUBSTRUCTURE
  1 SAM  25 GROUP 4 C **** 0

# MOE 2022.02 (io_trps.svl 2020.11)
