@<TRIPOS>MOLECULE
7T7L.A
51 53 1 0 0 
SMALL
USER_CHARGES


@<TRIPOS>ATOM
  1 N      -14.1350   -11.5370     1.7810 N.4   1 SAM  -0.8530 
  2 H1     -14.0206   -11.3290     0.7993 H     1 SAM   0.4500 
  3 H2     -15.1062   -11.7384     1.9715 H     1 SAM   0.4500 
  4 H3     -13.5711   -12.3392     2.0232 H     1 SAM   0.4500 
  5 CA     -13.7120   -10.3880     2.5740 C.3   1 SAM   0.3170 
  6 HA     -13.8482   -10.6457     3.6243 H     1 SAM   0.0800 
  7 C      -14.5640    -9.1560     2.2920 C.2   1 SAM   0.9060 
  8 O      -15.4790    -9.1910     1.4690 O.co2 1 SAM  -0.9000 
  9 CB     -12.2410   -10.0840     2.3170 C.3   1 SAM  -0.1600 
 10 HB1    -12.0331    -9.0729     2.6671 H     1 SAM   0.0800 
 11 HB2    -12.0611   -10.1409     1.2435 H     1 SAM   0.0800 
 12 CG     -11.2820   -11.0410     3.0160 C.3   1 SAM  -0.1525 
 13 HG1    -10.2729   -10.8689     2.6416 H     1 SAM   0.0800 
 14 HG2    -11.5809   -12.0661     2.7970 H     1 SAM   0.0800 
 15 SD     -11.2960   -10.7930     4.8090 S.3   1 SAM   0.9775 
 16 CE      -9.5230   -10.6890     5.1610 C.3   1 SAM  -0.2325 
 17 HE1     -9.1461    -9.7166     4.8441 H     1 SAM   0.0800 
 18 HE2     -8.9983   -11.4761     4.6195 H     1 SAM   0.0800 
 19 HE3     -9.3572   -10.8117     6.2313 H     1 SAM   0.0800 
 20 C5'    -11.6710   -12.4560     5.4110 C.3   1 SAM  -0.1525 
 21 H5'1   -11.2992   -12.5541     6.4309 H     1 SAM   0.0800 
 22 H5'2   -11.1721   -13.1837     4.7709 H     1 SAM   0.0800 
 23 C4'    -13.1680   -12.7370     5.4030 C.3   1 SAM   0.2000 
 24 H4'    -13.6594   -11.8247     5.7413 H     1 SAM   0.0800 
 25 O4'    -13.5820   -13.1010     4.0970 O.3   1 SAM  -0.5600 
 26 C3'    -13.5420   -13.8820     6.3300 C.3   1 SAM   0.2000 
 27 H3'    -12.6976   -14.5311     6.5616 H     1 SAM   0.0800 
 28 O3'    -14.0080   -13.3930     7.5640 O.3   1 SAM  -0.6800 
 29 H3'    -14.7545   -12.8167     7.3846 H     1 SAM   0.4000 
 30 C2'    -14.6450   -14.5960     5.5890 C.3   1 SAM   0.2000 
 31 H2'    -14.6608   -15.6694     5.7779 H     1 SAM   0.0800 
 32 O2'    -15.8860   -14.0610     5.9820 O.3   1 SAM  -0.6800 
 33 H2'    -15.9975   -14.2436     6.9178 H     1 SAM   0.4000 
 34 C1'    -14.3930   -14.2560     4.1350 C.3   1 SAM   0.5691 
 35 H1'    -15.3299   -14.0965     3.6012 H     1 SAM   0.0800 
 36 OXT    -14.3610    -8.1000     2.8910 O.co2 1 SAM  -0.9000 
 37 N1     -14.4790   -19.2130     2.4130 N.2   1 SAM  -0.6610 
 38 C2     -15.5280   -18.4790     2.9280 C.2   1 SAM   0.6010 
 39 H2     -16.5073   -18.9264     3.0129 H     1 SAM   0.0600 
 40 N3     -15.3300   -17.1750     3.3350 N.2   1 SAM  -0.6610 
 41 C4     -14.1030   -16.6080     3.2260 C.2   1 SAM   0.5000 
 42 C5     -13.0370   -17.3330     2.7150 C.2   1 SAM   0.4500 
 43 C6     -13.2280   -18.6430     2.3040 C.2   1 SAM   0.6110 
 44 N6     -12.2080   -19.3400     1.8140 N.2   1 SAM  -0.2000 
 45 H62    -12.3463   -20.2945     1.5143 H     1 SAM   0.4000 
 46 H61    -11.2946   -18.9151     1.7413 H     1 SAM   0.4000 
 47 N7     -11.9460   -16.5380     2.7240 N.2   1 SAM  -0.6960 
 48 C8     -12.2910   -15.3360     3.2330 C.3   1 SAM   0.4551 
 49 H81    -12.0985   -14.5558     2.4966 H     1 SAM   0.0800 
 50 H82    -11.7096   -15.1372     4.1333 H     1 SAM   0.0800 
 51 N9     -13.6260   -15.3620     3.5410 N.pl3 1 SAM  -0.7882 
@<TRIPOS>BOND
  1   1   2  1   
  2   1   3  1   
  3   1   4  1   
  4   1   5  1   
  5   5   6  1   
  6   5   7  1   
  7   5   9  1   
  8   7   8  ar  
  9   7  36  ar  
 10   9  10  1   
 11   9  11  1   
 12   9  12  1   
 13  12  13  1   
 14  12  14  1   
 15  12  15  1   
 16  15  16  1   
 17  15  20  1   
 18  16  17  1   
 19  16  18  1   
 20  16  19  1   
 21  20  21  1   
 22  20  22  1   
 23  20  23  1   
 24  23  24  1   
 25  23  25  1   
 26  23  26  1   
 27  25  34  1   
 28  26  27  1   
 29  26  28  1   
 30  26  30  1   
 31  28  29  1   
 32  30  31  1   
 33  30  32  1   
 34  30  34  1   
 35  32  33  1   
 36  34  35  1   
 37  34  51  1   
 38  37  38  2   
 39  37  43  1   
 40  38  39  1   
 41  38  40  1   
 42  40  41  2   
 43  41  42  1   
 44  41  51  1   
 45  42  43  1   
 46  42  47  2   
 47  43  44  2   
 48  44  45  1   
 49  44  46  1   
 50  47  48  1   
 51  48  49  1   
 52  48  50  1   
 53  48  51  1   
@<TRIPOS>SUBSTRUCTURE
  1 SAM  25 GROUP 4 A **** 0

# MOE 2022.02 (io_trps.svl 2020.11)
