# created with PyMOL 2.4.0
@<TRIPOS>MOLECULE
temp
50 52 1                 
SMALL
USER_CHARGES
@<TRIPOS>ATOM
1	   N	29.514	25.639	0.027	N.4	1	SAM1	0.000	
2	  CA	29.297	24.560	0.983	C.3	1	SAM1	0.000	
3	   C	30.141	23.335	0.649	C.2	1	SAM1	0.000	
4	   O	30.993	23.371	-0.239	O.co2	1	SAM1	0.000	
5	  CB	27.819	24.185	1.034	C.3	1	SAM1	0.000	
6	  CG	26.966	25.080	1.928	C.3	1	SAM1	0.000	
7	  SD	27.121	24.628	3.675	S.3	1	SAM1	0.000	
8	  CE	25.383	24.471	4.160	C.3	1	SAM1	0.000	
9	 C5'	27.526	26.213	4.446	C.3	1	SAM1	0.000	
10	 C4'	29.011	26.532	4.353	C.3	1	SAM1	0.000	
11	 O4'	29.322	26.961	3.039	O.3	1	SAM1	0.000	
12	 C3'	29.417	27.652	5.298	C.3	1	SAM1	0.000	
13	 O3'	29.948	27.145	6.499	O.3	1	SAM1	0.000	
14	 C2'	30.469	28.404	4.519	C.3	1	SAM1	0.000	
15	 O2'	31.738	27.860	4.798	O.3	1	SAM1	0.000	
16	 C1'	30.117	28.128	3.074	C.3	1	SAM1	0.000	
17	 OXT	29.996	22.281	1.269	O.co2	1	SAM1	0.000	
18	  N1	30.183	33.077	1.350	N.2	1	SAM1	0.000	
19	  C2	31.255	32.299	1.739	C.2	1	SAM1	0.000	
20	  N3	31.052	31.003	2.168	N.2	1	SAM1	0.000	
21	  C4	29.799	30.487	2.206	C.2	1	SAM1	0.000	
22	  C5	28.709	31.255	1.824	C.2	1	SAM1	0.000	
23	  C6	28.905	32.559	1.393	C.2	1	SAM1	0.000	
24	  N6	27.868	33.303	1.018	N.pl3	1	SAM1	0.000	
25	  N7	27.596	30.502	1.964	N.2	1	SAM1	0.000	
26	  C8	27.955	29.285	2.432	C.2	1	SAM1	0.000	
27	  N9	29.318	29.259	2.577	N.2	1	SAM1	0.000	
28	  HA	29.607	24.920	1.964	 H	1	SAM1	0.000	
29	 HB1	27.740	23.162	1.403	 H	1	SAM1	0.000	
30	 HB2	27.420	24.237	0.021	 H	1	SAM1	0.000	
31	 HG1	25.922	24.984	1.630	 H	1	SAM1	0.000	
32	 HG2	27.287	26.114	1.801	 H	1	SAM1	0.000	
33	 HE1	24.978	23.540	3.763	 H	1	SAM1	0.000	
34	 HE2	24.817	25.313	3.762	 H	1	SAM1	0.000	
35	 HE3	25.308	24.465	5.247	 H	1	SAM1	0.000	
36	  H1	29.235	25.334	-0.894	 H	1	SAM1	0.000	
37	  H2	30.493	25.888	0.017	 H	1	SAM1	0.000	
38	  H2	32.255	32.706	1.707	 H	1	SAM1	0.000	
39	  H3	28.965	26.443	0.296	 H	1	SAM1	0.000	
40	  H8	27.281	28.471	2.654	 H	1	SAM1	0.000	
41	 H1'	31.013	28.000	2.466	 H	1	SAM1	0.000	
42	 H2'	30.497	29.467	4.759	 H	1	SAM1	0.000	
43	 H2'	31.914	27.998	5.732	 H	1	SAM1	0.000	
44	 H3'	28.575	28.277	5.595	 H	1	SAM1	0.000	
45	 H3'	30.696	26.587	6.273	 H	1	SAM1	0.000	
46	 H4'	29.548	25.622	4.622	 H	1	SAM1	0.000	
47	 H61	26.934	32.919	1.046	 H	1	SAM1	0.000	
48	 H62	28.014	34.252	0.705	 H	1	SAM1	0.000	
49	H5'1	27.240	26.176	5.497	 H	1	SAM1	0.000	
50	H5'2	26.965	27.001	3.944	 H	1	SAM1	0.000	
@<TRIPOS>BOND
1 1 2 1
2 1 36 1
3 1 37 1
4 1 39 1
5 2 3 1
6 2 5 1
7 2 28 1
8 3 4 ar
9 3 17 ar
10 5 6 1
11 5 29 1
12 5 30 1
13 6 7 1
14 6 31 1
15 6 32 1
16 7 8 1
17 7 9 1
18 8 33 1
19 8 34 1
20 8 35 1
21 9 10 1
22 9 49 1
23 9 50 1
24 10 11 1
25 10 12 1
26 10 46 1
27 11 16 1
28 12 13 1
29 12 14 1
30 12 44 1
31 13 45 1
32 14 15 1
33 14 16 1
34 14 42 1
35 15 43 1
36 16 27 1
37 16 41 1
38 18 19 ar
39 18 23 ar
40 19 20 ar
41 19 38 1
42 20 21 ar
43 21 22 ar
44 21 27 ar
45 22 23 ar
46 22 25 ar
47 23 24 1
48 24 47 1
49 24 48 1
50 25 26 ar
51 26 27 ar
52 26 40 1
@<TRIPOS>SUBSTRUCTURE
1	SAM1	1	GROUP	1 C	SAM
