# created with PyMOL 2.4.0
@<TRIPOS>MOLECULE
temp
50 52 1                 
SMALL
USER_CHARGES
@<TRIPOS>ATOM
1	   N	-1.662	22.366	12.391	N.4	1	SAM1	0.000	
2	  CA	-1.996	20.947	12.562	C.3	1	SAM1	0.000	
3	   C	-1.733	20.461	13.985	C.2	1	SAM1	0.000	
4	   O	-1.972	19.283	14.302	O.co2	1	SAM1	0.000	
5	  CB	-1.219	20.123	11.514	C.3	1	SAM1	0.000	
6	  CG	0.314	20.151	11.576	C.3	1	SAM1	0.000	
7	  SD	1.067	18.984	10.392	S.3	1	SAM1	0.000	
8	  CE	-0.400	17.987	10.216	C.3	1	SAM1	0.000	
9	 C5'	1.542	20.124	9.063	C.3	1	SAM1	0.000	
10	 C4'	0.477	20.359	7.983	C.3	1	SAM1	0.000	
11	 O4'	1.048	21.208	6.974	O.3	1	SAM1	0.000	
12	 C3'	0.013	19.080	7.270	C.3	1	SAM1	0.000	
13	 O3'	-1.363	18.835	7.597	O.3	1	SAM1	0.000	
14	 C2'	0.192	19.370	5.800	C.3	1	SAM1	0.000	
15	 O2'	-0.916	18.969	5.045	O.3	1	SAM1	0.000	
16	 C1'	0.359	20.883	5.784	C.3	1	SAM1	0.000	
17	 OXT	-1.207	21.221	14.810	O.co2	1	SAM1	0.000	
18	  N1	0.386	24.238	1.893	N.2	1	SAM1	0.000	
19	  C2	-0.584	24.026	2.842	C.2	1	SAM1	0.000	
20	  N3	-0.431	23.085	3.819	N.2	1	SAM1	0.000	
21	  C4	0.712	22.340	3.802	C.2	1	SAM1	0.000	
22	  C5	1.694	22.527	2.843	C.2	1	SAM1	0.000	
23	  C6	1.534	23.510	1.857	C.2	1	SAM1	0.000	
24	  N6	2.432	23.758	0.901	N.pl3	1	SAM1	0.000	
25	  N7	2.695	21.646	3.112	N.2	1	SAM1	0.000	
26	  C8	2.372	20.925	4.225	C.2	1	SAM1	0.000	
27	  N9	1.123	21.350	4.641	N.2	1	SAM1	0.000	
28	  HA	-3.065	20.812	12.400	 H	1	SAM1	0.000	
29	 HB1	-1.511	20.490	10.530	 H	1	SAM1	0.000	
30	 HB2	-1.530	19.084	11.622	 H	1	SAM1	0.000	
31	 HG1	0.631	19.883	12.584	 H	1	SAM1	0.000	
32	 HG2	0.657	21.159	11.343	 H	1	SAM1	0.000	
33	 HE1	-0.527	17.368	11.104	 H	1	SAM1	0.000	
34	 HE2	-0.302	17.348	9.339	 H	1	SAM1	0.000	
35	 HE3	-1.268	18.635	10.098	 H	1	SAM1	0.000	
36	  H1	-0.672	22.499	12.539	 H	1	SAM1	0.000	
37	  H2	-2.180	22.917	13.061	 H	1	SAM1	0.000	
38	  H2	-1.488	24.617	2.815	 H	1	SAM1	0.000	
39	  H3	-1.905	22.659	11.455	 H	1	SAM1	0.000	
40	  H8	2.979	20.164	4.694	 H	1	SAM1	0.000	
41	 H1'	-0.618	21.361	5.713	 H	1	SAM1	0.000	
42	 H2'	1.029	18.831	5.356	 H	1	SAM1	0.000	
43	 H2'	-1.686	19.419	5.398	 H	1	SAM1	0.000	
44	 H3'	0.572	18.192	7.563	 H	1	SAM1	0.000	
45	 H3'	-1.645	18.061	7.104	 H	1	SAM1	0.000	
46	 H4'	-0.386	20.791	8.489	 H	1	SAM1	0.000	
47	 H61	3.287	23.222	0.860	 H	1	SAM1	0.000	
48	 H62	2.256	24.482	0.219	 H	1	SAM1	0.000	
49	H5'1	2.431	19.722	8.577	 H	1	SAM1	0.000	
50	H5'2	1.780	21.087	9.515	 H	1	SAM1	0.000	
@<TRIPOS>BOND
1 1 2 1
2 1 36 1
3 1 37 1
4 1 39 1
5 2 3 1
6 2 5 1
7 2 28 1
8 3 4 ar
9 3 17 ar
10 5 6 1
11 5 29 1
12 5 30 1
13 6 7 1
14 6 31 1
15 6 32 1
16 7 8 1
17 7 9 1
18 8 33 1
19 8 34 1
20 8 35 1
21 9 10 1
22 9 49 1
23 9 50 1
24 10 11 1
25 10 12 1
26 10 46 1
27 11 16 1
28 12 13 1
29 12 14 1
30 12 44 1
31 13 45 1
32 14 15 1
33 14 16 1
34 14 42 1
35 15 43 1
36 16 27 1
37 16 41 1
38 18 19 ar
39 18 23 ar
40 19 20 ar
41 19 38 1
42 20 21 ar
43 21 22 ar
44 21 27 ar
45 22 23 ar
46 22 25 ar
47 23 24 1
48 24 47 1
49 24 48 1
50 25 26 ar
51 26 27 ar
52 26 40 1
@<TRIPOS>SUBSTRUCTURE
1	SAM1	1	GROUP	1 B	SAM
