@<TRIPOS>MOLECULE
7PHD.B
76 80 1 0 0 
SMALL
USER_CHARGES


@<TRIPOS>ATOM
  1 C1       2.8140    12.6940    20.7880 C.3   1 Q3VL  -0.2400 
  2 H11      2.9681    12.2592    21.7756 H     1 Q3VL   0.0800 
  3 H12      3.4559    12.1905    20.0651 H     1 Q3VL   0.0800 
  4 H13      1.7712    12.5710    20.4955 H     1 Q3VL   0.0800 
  5 N1      -2.6780    16.1420    18.4280 N.4   1 Q3VL  -0.9590 
  6 H1      -2.5875    15.3171    17.8523 H     1 Q3VL   0.4500 
  7 O1       1.6170    14.6000    19.0630 O.3   1 Q3VL  -0.6800 
  8 H1       1.5079    14.9238    18.1659 H     1 Q3VL   0.4000 
  9 C2       3.1600    14.1820    20.8270 C.3   1 Q3VL  -0.1600 
 10 H21      4.2017    14.2891    21.1294 H     1 Q3VL   0.0800 
 11 H22      2.5170    14.6696    21.5597 H     1 Q3VL   0.0800 
 12 O2       5.9230    14.9660    19.4230 O.2   1 Q3VL  -0.5700 
 13 C3       2.9690    14.8780    19.4640 C.3   1 Q3VL   0.2800 
 14 O3       5.6830    12.7280    19.0760 O.3   1 Q3VL  -0.4300 
 15 C4       3.2800    16.3790    19.3880 C.3   1 Q3VL  -0.1600 
 16 H41      4.3261    16.5601    19.6350 H     1 Q3VL   0.0800 
 17 H42      2.6428    16.9313    20.0786 H     1 Q3VL   0.0800 
 18 O4       5.5340    12.5030    13.9870 O.2   1 Q3VL  -0.5700 
 19 C5       3.9270    14.1530    18.5010 C.3   1 Q3VL   0.1245 
 20 H5       3.5087    13.1501    18.4159 H     1 Q3VL   0.0800 
 21 O5       4.5190    17.3820    10.8890 O.3   1 Q3VL  -0.5325 
 22 H5       4.1821    17.7897    11.6902 H     1 Q3VL   0.4500 
 23 C6       5.2420    14.0140    19.0290 C.2   1 Q3VL   0.6590 
 24 O6       3.9490    17.4450    13.1260 O.2   1 Q3VL  -0.5700 
 25 C7       6.9940    12.6780    19.6480 C.3   1 Q3VL   0.0400 
 26 H71      7.3369    11.6439    19.6806 H     1 Q3VL   0.0800 
 27 H72      6.9648    13.0832    20.6595 H     1 Q3VL   0.0800 
 28 H73      7.6787    13.2688    19.0395 H     1 Q3VL   0.0800 
 29 O7       3.2920    17.7300    15.4180 O.3   1 Q3VL  -0.8290 
 30 C8       3.9310    14.6520    17.1920 C.ar  1 Q3VL  -0.1435 
 31 O8       1.5850    16.4850    17.8240 O.3   1 Q3VL  -0.5600 
 32 C9       4.5000    13.9130    16.1530 C.ar  1 Q3VL  -0.1500 
 33 H9       4.8530    12.9125    16.3549 H     1 Q3VL   0.1500 
 34 O9       0.7790    18.5850    18.3850 O.3   1 Q3VL  -0.5600 
 35 C10      4.6270    14.4280    14.8590 C.ar  1 Q3VL   0.0862 
 36 O10     -1.9100    18.9280    19.2220 O.3   1 Q3VL  -0.6800 
 37 H10     -1.6039    19.2221    18.3610 H     1 Q3VL   0.4000 
 38 C11      5.1500    13.6690    13.8050 C.2   1 Q3VL   0.3976 
 39 C12      5.2550    14.2390    12.5320 C.ar  1 Q3VL   0.0862 
 40 C13      5.7700    13.5160    11.4720 C.ar  1 Q3VL  -0.1500 
 41 H13      6.0941    12.4980    11.6303 H     1 Q3VL   0.1500 
 42 C14      5.8770    14.0790    10.2060 C.ar  1 Q3VL  -0.1500 
 43 H14      6.2954    13.4974     9.3979 H     1 Q3VL   0.1500 
 44 C15      5.4530    15.3800     9.9660 C.ar  1 Q3VL  -0.1500 
 45 H15      5.5179    15.8176     8.9808 H     1 Q3VL   0.1500 
 46 C16      4.9460    16.0920    11.0330 C.ar  1 Q3VL   0.0825 
 47 C17      4.8420    15.5360    12.3030 C.ar  1 Q3VL   0.0862 
 48 C18      4.3180    16.2860    13.3430 C.2   1 Q3VL   0.3976 
 49 C19      4.2090    15.7280    14.6170 C.ar  1 Q3VL   0.0862 
 50 C20      3.6950    16.4630    15.6700 C.ar  1 Q3VL  -0.1710 
 51 C21      3.5740    15.9840    16.9640 C.ar  1 Q3VL  -0.1435 
 52 C22      2.9940    16.8090    17.9430 C.3   1 Q3VL   0.3435 
 53 H22      3.3426    17.8304    17.7902 H     1 Q3VL   0.0800 
 54 C23      0.7020    17.5590    17.3310 C.3   1 Q3VL   0.4800 
 55 H23      0.9984    17.9124    16.3434 H     1 Q3VL   0.0800 
 56 C24     -0.7420    17.0710    17.2250 C.3   1 Q3VL  -0.1600 
 57 H241    -0.7836    16.2367    16.5247 H     1 Q3VL   0.0800 
 58 H242    -1.3653    17.8859    16.8567 H     1 Q3VL   0.0800 
 59 C25      0.3390    18.1710    19.6890 C.3   1 Q3VL   0.2000 
 60 H25      0.9325    17.3280    20.0428 H     1 Q3VL   0.0800 
 61 C26      0.5050    19.3300    20.6760 C.3   1 Q3VL  -0.2400 
 62 H261    -0.0829    20.1829    20.3370 H     1 Q3VL   0.0800 
 63 H262     1.5563    19.6123    20.7314 H     1 Q3VL   0.0800 
 64 H263     0.1597    19.0197    21.6622 H     1 Q3VL   0.0800 
 65 C27     -1.1250    17.7620    19.5930 C.3   1 Q3VL   0.2000 
 66 H27     -1.4893    17.3974    20.5535 H     1 Q3VL   0.0800 
 67 C28     -1.2790    16.6080    18.5840 C.3   1 Q3VL   0.4230 
 68 H28     -0.7122    15.7612    18.9711 H     1 Q3VL   0.0800 
 69 C29     -3.5650    17.0180    17.6520 C.3   1 Q3VL   0.2630 
 70 H291    -3.0808    17.2852    16.7127 H     1 Q3VL   0.0800 
 71 H292    -3.7733    17.9224    18.2236 H     1 Q3VL   0.0800 
 72 H293    -4.4993    16.4966    17.4437 H     1 Q3VL   0.0800 
 73 C30     -3.2790    15.7490    19.7060 C.3   1 Q3VL   0.2630 
 74 H301    -2.5895    15.1016    20.2479 H     1 Q3VL   0.0800 
 75 H302    -4.2101    15.2137    19.5203 H     1 Q3VL   0.0800 
 76 H303    -3.4842    16.6395    20.3001 H     1 Q3VL   0.0800 
@<TRIPOS>BOND
  1   1   2  1   
  2   1   3  1   
  3   1   4  1   
  4   1   9  1   
  5   5   6  1   
  6   5  67  1   
  7   5  69  1   
  8   5  73  1   
  9   7   8  1   
 10   7  13  1   
 11   9  10  1   
 12   9  11  1   
 13   9  13  1   
 14  12  23  2   
 15  13  15  1   
 16  13  19  1   
 17  14  23  1   
 18  14  25  1   
 19  15  16  1   
 20  15  17  1   
 21  15  52  1   
 22  18  38  2   
 23  19  20  1   
 24  19  23  1   
 25  19  30  1   
 26  21  22  1   
 27  21  46  1   
 28  24  48  2   
 29  25  26  1   
 30  25  27  1   
 31  25  28  1   
 32  29  50  1   
 33  30  32  ar  
 34  30  51  ar  
 35  31  52  1   
 36  31  54  1   
 37  32  33  1   
 38  32  35  ar  
 39  34  54  1   
 40  34  59  1   
 41  35  38  1   
 42  35  49  ar  
 43  36  37  1   
 44  36  65  1   
 45  38  39  1   
 46  39  40  ar  
 47  39  47  ar  
 48  40  41  1   
 49  40  42  ar  
 50  42  43  1   
 51  42  44  ar  
 52  44  45  1   
 53  44  46  ar  
 54  46  47  ar  
 55  47  48  1   
 56  48  49  1   
 57  49  50  ar  
 58  50  51  ar  
 59  51  52  1   
 60  52  53  1   
 61  54  55  1   
 62  54  56  1   
 63  56  57  1   
 64  56  58  1   
 65  56  67  1   
 66  59  60  1   
 67  59  61  1   
 68  59  65  1   
 69  61  62  1   
 70  61  63  1   
 71  61  64  1   
 72  65  66  1   
 73  65  67  1   
 74  67  68  1   
 75  69  70  1   
 76  69  71  1   
 77  69  72  1   
 78  73  74  1   
 79  73  75  1   
 80  73  76  1   
@<TRIPOS>SUBSTRUCTURE
  1 Q3VL  51 GROUP 4 B **** 0

# MOE 2022.02 (io_trps.svl 2020.11)
