# created with PyMOL 2.5.2
@<TRIPOS>MOLECULE
7PHD
41 45 1                 
SMALL
USER_CHARGES
@<TRIPOS>ATOM
1	  C1	2.814	12.694	20.788	C.3	1	3VL405	0.000	
2	  N1	-2.678	16.142	18.428	N.3	1	3VL405	0.000	
3	  O1	1.617	14.600	19.063	O.3	1	3VL405	0.000	
4	  C2	3.160	14.182	20.827	C.3	1	3VL405	0.000	
5	  O2	5.923	14.966	19.423	O.co2	1	3VL405	0.000	
6	  C3	2.969	14.878	19.464	C.3	1	3VL405	0.000	
7	  O3	5.683	12.728	19.076	O.3	1	3VL405	0.000	
8	  C4	3.280	16.379	19.388	C.3	1	3VL405	0.000	
9	  O4	5.534	12.503	13.987	O.2	1	3VL405	0.000	
10	  C5	3.927	14.153	18.501	C.3	1	3VL405	0.000	
11	  O5	4.519	17.382	10.889	O.3	1	3VL405	0.000	
12	  C6	5.242	14.014	19.029	C.2	1	3VL405	0.000	
13	  O6	3.949	17.445	13.126	O.2	1	3VL405	0.000	
14	  C7	6.994	12.678	19.648	C.3	1	3VL405	0.000	
15	  O7	3.292	17.730	15.418	O.3	1	3VL405	0.000	
16	  C8	3.931	14.652	17.192	C.2	1	3VL405	0.000	
17	  O8	1.585	16.485	17.824	O.3	1	3VL405	0.000	
18	  C9	4.500	13.913	16.153	C.2	1	3VL405	0.000	
19	  O9	0.779	18.585	18.385	O.3	1	3VL405	0.000	
20	 C10	4.627	14.428	14.859	C.2	1	3VL405	0.000	
21	 O10	-1.910	18.928	19.222	O.3	1	3VL405	0.000	
22	 C11	5.150	13.669	13.805	C.2	1	3VL405	0.000	
23	 C12	5.255	14.239	12.532	C.2	1	3VL405	0.000	
24	 C13	5.770	13.516	11.472	C.2	1	3VL405	0.000	
25	 C14	5.877	14.079	10.206	C.2	1	3VL405	0.000	
26	 C15	5.453	15.380	9.966	C.2	1	3VL405	0.000	
27	 C16	4.946	16.092	11.033	C.2	1	3VL405	0.000	
28	 C17	4.842	15.536	12.303	C.2	1	3VL405	0.000	
29	 C18	4.318	16.286	13.343	C.2	1	3VL405	0.000	
30	 C19	4.209	15.728	14.617	C.2	1	3VL405	0.000	
31	 C20	3.695	16.463	15.670	C.2	1	3VL405	0.000	
32	 C21	3.574	15.984	16.964	C.2	1	3VL405	0.000	
33	 C22	2.994	16.809	17.943	C.3	1	3VL405	0.000	
34	 C23	0.702	17.559	17.331	C.3	1	3VL405	0.000	
35	 C24	-0.742	17.071	17.225	C.3	1	3VL405	0.000	
36	 C25	0.339	18.171	19.689	C.3	1	3VL405	0.000	
37	 C26	0.505	19.330	20.676	C.3	1	3VL405	0.000	
38	 C27	-1.125	17.762	19.593	C.3	1	3VL405	0.000	
39	 C28	-1.279	16.608	18.584	C.3	1	3VL405	0.000	
40	 C29	-3.565	17.018	17.652	C.3	1	3VL405	0.000	
41	 C30	-3.279	15.749	19.706	C.3	1	3VL405	0.000	
@<TRIPOS>BOND
1 1 4 1
2 2 39 1
3 2 40 1
4 2 41 1
5 3 6 1
6 4 6 1
7 5 12 2
8 6 8 1
9 6 10 1
10 7 12 1
11 7 14 1
12 8 33 1
13 9 22 2
14 10 12 1
15 10 16 1
16 11 27 1
17 13 29 2
18 15 31 1
19 16 18 ar
20 16 32 ar
21 17 33 1
22 17 34 1
23 18 20 ar
24 19 34 1
25 19 36 1
26 20 22 ar
27 20 30 ar
28 21 38 1
29 22 23 ar
30 23 24 ar
31 23 28 ar
32 24 25 ar
33 25 26 ar
34 26 27 ar
35 27 28 ar
36 28 29 ar
37 29 30 ar
38 30 31 ar
39 31 32 ar
40 32 33 1
41 34 35 1
42 35 39 1
43 36 37 1
44 36 38 1
45 38 39 1
@<TRIPOS>SUBSTRUCTURE
1	3VL405	1	GROUP	1 B	3VL
