@<TRIPOS>MOLECULE
7PHD.B
51 53 1 0 0 
SMALL
USER_CHARGES


@<TRIPOS>ATOM
  1 N       -1.6620    22.3660    12.3910 N.4   1 SAM  -0.8530 
  2 H1      -0.6719    22.4990    12.5394 H     1 SAM   0.4500 
  3 H2      -2.1798    22.9168    13.0607 H     1 SAM   0.4500 
  4 H3      -1.9045    22.6586    11.4552 H     1 SAM   0.4500 
  5 CA      -1.9960    20.9470    12.5620 C.3   1 SAM   0.3170 
  6 HA      -3.0654    20.8116    12.4004 H     1 SAM   0.0800 
  7 C       -1.7330    20.4610    13.9850 C.2   1 SAM   0.9060 
  8 O       -1.9720    19.2830    14.3020 O.co2 1 SAM  -0.9000 
  9 CB      -1.2190    20.1230    11.5140 C.3   1 SAM  -0.1600 
 10 HB1     -1.5114    20.4896    10.5301 H     1 SAM   0.0800 
 11 HB2     -1.5299    19.0838    11.6217 H     1 SAM   0.0800 
 12 CG       0.3140    20.1510    11.5760 C.3   1 SAM  -0.1525 
 13 HG1      0.6305    19.8830    12.5840 H     1 SAM   0.0800 
 14 HG2      0.6573    21.1590    11.3434 H     1 SAM   0.0800 
 15 SD       1.0670    18.9840    10.3920 S.3   1 SAM   0.9775 
 16 CE      -0.4000    17.9870    10.2160 C.3   1 SAM  -0.2325 
 17 HE1     -0.5272    17.3679    11.1041 H     1 SAM   0.0800 
 18 HE2     -0.3018    17.3478     9.3385 H     1 SAM   0.0800 
 19 HE3     -1.2680    18.6355    10.0978 H     1 SAM   0.0800 
 20 C5'      1.5420    20.1240     9.0630 C.3   1 SAM  -0.1525 
 21 H5'1     2.4306    19.7215     8.5767 H     1 SAM   0.0800 
 22 H5'2     1.7800    21.0868     9.5153 H     1 SAM   0.0800 
 23 C4'      0.4770    20.3590     7.9830 C.3   1 SAM   0.2000 
 24 H4'     -0.3863    20.7910     8.4892 H     1 SAM   0.0800 
 25 O4'      1.0480    21.2080     6.9740 O.3   1 SAM  -0.5600 
 26 C3'      0.0130    19.0800     7.2700 C.3   1 SAM   0.2000 
 27 H3'      0.5724    18.1917     7.5635 H     1 SAM   0.0800 
 28 O3'     -1.3630    18.8350     7.5970 O.3   1 SAM  -0.6800 
 29 H3'     -1.6452    18.0612     7.1039 H     1 SAM   0.4000 
 30 C2'      0.1920    19.3700     5.8000 C.3   1 SAM   0.2000 
 31 H2'      1.0293    18.8312     5.3564 H     1 SAM   0.0800 
 32 O2'     -0.9160    18.9690     5.0450 O.3   1 SAM  -0.6800 
 33 H2'     -1.6865    19.4194     5.3985 H     1 SAM   0.4000 
 34 C1'      0.3590    20.8830     5.7840 C.3   1 SAM   0.5691 
 35 H1'     -0.6181    21.3610     5.7132 H     1 SAM   0.0800 
 36 OXT     -1.2070    21.2210    14.8100 O.co2 1 SAM  -0.9000 
 37 N1       0.3860    24.2380     1.8930 N.2   1 SAM  -0.6610 
 38 C2      -0.5840    24.0260     2.8420 C.2   1 SAM   0.6010 
 39 H2      -1.4877    24.6168     2.8146 H     1 SAM   0.0600 
 40 N3      -0.4310    23.0850     3.8190 N.2   1 SAM  -0.6610 
 41 C4       0.7120    22.3400     3.8020 C.2   1 SAM   0.5000 
 42 C5       1.6940    22.5270     2.8430 C.2   1 SAM   0.4500 
 43 C6       1.5340    23.5100     1.8570 C.2   1 SAM   0.6110 
 44 N6       2.4320    23.7580     0.9010 N.2   1 SAM  -0.2000 
 45 H62      2.2564    24.4817     0.2187 H     1 SAM   0.4000 
 46 H61      3.2870    23.2220     0.8600 H     1 SAM   0.4000 
 47 N7       2.6950    21.6460     3.1120 N.2   1 SAM  -0.6960 
 48 C8       2.3720    20.9250     4.2250 C.3   1 SAM   0.4551 
 49 H81      3.1070    21.1015     5.0103 H     1 SAM   0.0800 
 50 H82      2.3440    19.8619     3.9859 H     1 SAM   0.0800 
 51 N9       1.1230    21.3500     4.6410 N.pl3 1 SAM  -0.7882 
@<TRIPOS>BOND
  1   1   2  1   
  2   1   3  1   
  3   1   4  1   
  4   1   5  1   
  5   5   6  1   
  6   5   7  1   
  7   5   9  1   
  8   7   8  ar  
  9   7  36  ar  
 10   9  10  1   
 11   9  11  1   
 12   9  12  1   
 13  12  13  1   
 14  12  14  1   
 15  12  15  1   
 16  15  16  1   
 17  15  20  1   
 18  16  17  1   
 19  16  18  1   
 20  16  19  1   
 21  20  21  1   
 22  20  22  1   
 23  20  23  1   
 24  23  24  1   
 25  23  25  1   
 26  23  26  1   
 27  25  34  1   
 28  26  27  1   
 29  26  28  1   
 30  26  30  1   
 31  28  29  1   
 32  30  31  1   
 33  30  32  1   
 34  30  34  1   
 35  32  33  1   
 36  34  35  1   
 37  34  51  1   
 38  37  38  2   
 39  37  43  1   
 40  38  39  1   
 41  38  40  1   
 42  40  41  2   
 43  41  42  1   
 44  41  51  1   
 45  42  43  1   
 46  42  47  2   
 47  43  44  2   
 48  44  45  1   
 49  44  46  1   
 50  47  48  1   
 51  48  49  1   
 52  48  50  1   
 53  48  51  1   
@<TRIPOS>SUBSTRUCTURE
  1 SAM  25 GROUP 4 B **** 0

# MOE 2022.02 (io_trps.svl 2020.11)
