# created with PyMOL 2.4.0
@<TRIPOS>MOLECULE
temp
50 52 1                 
SMALL
USER_CHARGES
@<TRIPOS>ATOM
1	   N	-3.251	32.142	-5.762	N.4	1	SAM1	0.000	
2	  CA	-3.525	33.337	-6.562	C.3	1	SAM1	0.000	
3	   C	-4.781	34.056	-6.098	C.2	1	SAM1	0.000	
4	   O	-5.062	35.164	-6.623	O.co2	1	SAM1	0.000	
5	  CB	-3.586	32.923	-8.083	C.3	1	SAM1	0.000	
6	  CG	-2.355	33.594	-8.757	C.3	1	SAM1	0.000	
7	  SD	-2.027	32.756	-10.282	S.3	1	SAM1	0.000	
8	  CE	-3.186	32.979	-11.687	C.3	1	SAM1	0.000	
9	 C5'	-0.309	32.169	-10.576	C.3	1	SAM1	0.000	
10	 C4'	0.553	33.426	-10.867	C.3	1	SAM1	0.000	
11	 O4'	1.788	33.016	-11.024	O.3	1	SAM1	0.000	
12	 C3'	0.110	34.175	-12.267	C.3	1	SAM1	0.000	
13	 O3'	-0.491	35.468	-11.964	O.3	1	SAM1	0.000	
14	 C2'	1.226	34.363	-12.932	C.3	1	SAM1	0.000	
15	 O2'	1.311	35.634	-13.483	O.3	1	SAM1	0.000	
16	 C1'	2.372	34.122	-11.880	C.3	1	SAM1	0.000	
17	 OXT	-5.523	33.576	-5.243	O.co2	1	SAM1	0.000	
18	  N1	7.492	33.911	-11.186	N.2	1	SAM1	0.000	
19	  C2	6.588	34.624	-10.513	C.2	1	SAM1	0.000	
20	  N3	5.280	34.564	-10.821	N.2	1	SAM1	0.000	
21	  C4	4.847	33.777	-11.838	C.2	1	SAM1	0.000	
22	  C5	5.729	33.031	-12.554	C.2	1	SAM1	0.000	
23	  C6	7.113	33.108	-12.194	C.2	1	SAM1	0.000	
24	  N6	8.113	32.325	-12.943	N.pl3	1	SAM1	0.000	
25	  N7	5.007	32.336	-13.472	N.2	1	SAM1	0.000	
26	  C8	3.731	32.660	-13.340	C.2	1	SAM1	0.000	
27	  N9	3.623	33.504	-12.340	N.2	1	SAM1	0.000	
28	  HA	-2.718	34.058	-6.428	 H	1	SAM1	0.000	
29	 HB1	-4.510	33.282	-8.537	 H	1	SAM1	0.000	
30	 HB2	-3.529	31.839	-8.184	 H	1	SAM1	0.000	
31	 HG1	-1.488	33.517	-8.101	 H	1	SAM1	0.000	
32	 HG2	-2.570	34.645	-8.953	 H	1	SAM1	0.000	
33	 HE1	-4.148	33.330	-11.313	 H	1	SAM1	0.000	
34	 HE2	-3.322	32.027	-12.201	 H	1	SAM1	0.000	
35	 HE3	-2.777	33.712	-12.382	 H	1	SAM1	0.000	
36	  H1	-3.999	31.475	-5.886	 H	1	SAM1	0.000	
37	  H2	-3.186	32.397	-4.787	 H	1	SAM1	0.000	
38	  H2	6.913	35.262	-9.705	 H	1	SAM1	0.000	
39	  H3	-2.379	31.730	-6.061	 H	1	SAM1	0.000	
40	  H8	2.918	32.293	-13.950	 H	1	SAM1	0.000	
41	 H1'	2.629	35.099	-11.472	 H	1	SAM1	0.000	
42	 H2'	1.293	33.685	-13.783	 H	1	SAM1	0.000	
43	 H2'	1.256	36.267	-12.763	 H	1	SAM1	0.000	
44	 H3'	-0.613	33.586	-12.830	 H	1	SAM1	0.000	
45	 H3'	-0.704	35.892	-12.799	 H	1	SAM1	0.000	
46	 H4'	0.429	34.130	-10.044	 H	1	SAM1	0.000	
47	 H61	7.822	31.735	-13.709	 H	1	SAM1	0.000	
48	 H62	9.089	32.379	-12.690	 H	1	SAM1	0.000	
49	H5'1	-0.285	31.492	-11.430	 H	1	SAM1	0.000	
50	H5'2	0.067	31.653	-9.693	 H	1	SAM1	0.000	
@<TRIPOS>BOND
1 1 2 1
2 1 36 1
3 1 37 1
4 1 39 1
5 2 3 1
6 2 5 1
7 2 28 1
8 3 4 ar
9 3 17 ar
10 5 6 1
11 5 29 1
12 5 30 1
13 6 7 1
14 6 31 1
15 6 32 1
16 7 8 1
17 7 9 1
18 8 33 1
19 8 34 1
20 8 35 1
21 9 10 1
22 9 49 1
23 9 50 1
24 10 11 1
25 10 12 1
26 10 46 1
27 11 16 1
28 12 13 1
29 12 14 1
30 12 44 1
31 13 45 1
32 14 15 1
33 14 16 1
34 14 42 1
35 15 43 1
36 16 27 1
37 16 41 1
38 18 19 ar
39 18 23 ar
40 19 20 ar
41 19 38 1
42 20 21 ar
43 21 22 ar
44 21 27 ar
45 22 23 ar
46 22 25 ar
47 23 24 1
48 24 47 1
49 24 48 1
50 25 26 ar
51 26 27 ar
52 26 40 1
@<TRIPOS>SUBSTRUCTURE
1	SAM1	1	GROUP	1 A	SAM
