@<TRIPOS>MOLECULE
5NJV.A
51 53 1 0 0 
SMALL
USER_CHARGES


@<TRIPOS>ATOM
  1 N       -3.2510    32.1420    -5.7620 N.4   1 SAM  -0.8530 
  2 H1      -3.9989    31.4748    -5.8865 H     1 SAM   0.4500 
  3 H2      -3.1863    32.3972    -4.7869 H     1 SAM   0.4500 
  4 H3      -2.3787    31.7296    -6.0607 H     1 SAM   0.4500 
  5 CA      -3.5250    33.3370    -6.5620 C.3   1 SAM   0.3170 
  6 HA      -2.7183    34.0577    -6.4282 H     1 SAM   0.0800 
  7 C       -4.7810    34.0560    -6.0980 C.2   1 SAM   0.9060 
  8 O       -5.0620    35.1640    -6.6230 O.co2 1 SAM  -0.9000 
  9 CB      -3.5860    32.9230    -8.0830 C.3   1 SAM  -0.1600 
 10 HB1     -4.5095    33.2822    -8.5370 H     1 SAM   0.0800 
 11 HB2     -3.5294    31.8391    -8.1835 H     1 SAM   0.0800 
 12 CG      -2.3550    33.5940    -8.7570 C.3   1 SAM  -0.1525 
 13 HG1     -1.4882    33.5167    -8.1006 H     1 SAM   0.0800 
 14 HG2     -2.5697    34.6445    -8.9530 H     1 SAM   0.0800 
 15 SD      -2.0270    32.7560   -10.2820 S.3   1 SAM   0.9775 
 16 CE      -3.1860    32.9790   -11.6870 C.3   1 SAM  -0.2325 
 17 HE1     -4.1475    33.3302   -11.3126 H     1 SAM   0.0800 
 18 HE2     -3.3217    32.0272   -12.2006 H     1 SAM   0.0800 
 19 HE3     -2.7772    33.7121   -12.3824 H     1 SAM   0.0800 
 20 C5'     -0.3090    32.1690   -10.5760 C.3   1 SAM  -0.1525 
 21 H5'1    -0.2851    31.4921   -11.4300 H     1 SAM   0.0800 
 22 H5'2     0.0671    31.6528    -9.6927 H     1 SAM   0.0800 
 23 C4'      0.5530    33.4260   -10.8670 C.3   1 SAM   0.2000 
 24 H4'      0.4288    34.1299   -10.0441 H     1 SAM   0.0800 
 25 O4'      1.7880    33.0160   -11.0240 O.3   1 SAM  -0.5600 
 26 C3'      0.1100    34.1750   -12.2670 C.3   1 SAM   0.2000 
 27 H3'     -0.6133    33.5856   -12.8305 H     1 SAM   0.0800 
 28 O3'     -0.4910    35.4680   -11.9640 O.3   1 SAM  -0.6800 
 29 H3'     -0.7038    35.8919   -12.7986 H     1 SAM   0.4000 
 30 C2'      1.2260    34.3630   -12.9320 C.3   1 SAM   0.2000 
 31 H2'      1.2927    33.6853   -13.7831 H     1 SAM   0.0800 
 32 O2'      1.3110    35.6340   -13.4830 O.3   1 SAM  -0.6800 
 33 H2'      1.2560    36.2667   -12.7631 H     1 SAM   0.4000 
 34 C1'      2.3720    34.1220   -11.8800 C.3   1 SAM   0.5691 
 35 H1'      2.6286    35.0995   -11.4717 H     1 SAM   0.0800 
 36 OXT     -5.5230    33.5760    -5.2430 O.co2 1 SAM  -0.9000 
 37 N1       7.4920    33.9110   -11.1860 N.2   1 SAM  -0.6610 
 38 C2       6.5880    34.6240   -10.5130 C.2   1 SAM   0.6010 
 39 H2       6.9126    35.2623    -9.7046 H     1 SAM   0.0600 
 40 N3       5.2800    34.5640   -10.8210 N.2   1 SAM  -0.6610 
 41 C4       4.8470    33.7770   -11.8380 C.2   1 SAM   0.5000 
 42 C5       5.7290    33.0310   -12.5540 C.2   1 SAM   0.4500 
 43 C6       7.1130    33.1080   -12.1940 C.2   1 SAM   0.6110 
 44 N6       8.1130    32.3250   -12.9430 N.2   1 SAM  -0.2000 
 45 H62      9.0893    32.3787   -12.6898 H     1 SAM   0.4000 
 46 H61      7.8217    31.7350   -13.7092 H     1 SAM   0.4000 
 47 N7       5.0070    32.3360   -13.4720 N.2   1 SAM  -0.6960 
 48 C8       3.7310    32.6600   -13.3400 C.3   1 SAM   0.4551 
 49 H81      3.1428    31.7659   -13.1333 H     1 SAM   0.0800 
 50 H82      3.3721    33.1269   -14.2572 H     1 SAM   0.0800 
 51 N9       3.6230    33.5040   -12.3400 N.pl3 1 SAM  -0.7882 
@<TRIPOS>BOND
  1   1   2  1   
  2   1   3  1   
  3   1   4  1   
  4   1   5  1   
  5   5   6  1   
  6   5   7  1   
  7   5   9  1   
  8   7   8  ar  
  9   7  36  ar  
 10   9  10  1   
 11   9  11  1   
 12   9  12  1   
 13  12  13  1   
 14  12  14  1   
 15  12  15  1   
 16  15  16  1   
 17  15  20  1   
 18  16  17  1   
 19  16  18  1   
 20  16  19  1   
 21  20  21  1   
 22  20  22  1   
 23  20  23  1   
 24  23  24  1   
 25  23  25  1   
 26  23  26  1   
 27  25  34  1   
 28  26  27  1   
 29  26  28  1   
 30  26  30  1   
 31  28  29  1   
 32  30  31  1   
 33  30  32  1   
 34  30  34  1   
 35  32  33  1   
 36  34  35  1   
 37  34  51  1   
 38  37  38  2   
 39  37  43  1   
 40  38  39  1   
 41  38  40  1   
 42  40  41  2   
 43  41  42  1   
 44  41  51  1   
 45  42  43  1   
 46  42  47  2   
 47  43  44  2   
 48  44  45  1   
 49  44  46  1   
 50  47  48  1   
 51  48  49  1   
 52  48  50  1   
 53  48  51  1   
@<TRIPOS>SUBSTRUCTURE
  1 SAM  23 GROUP 4 A **** 0

# MOE 2022.02 (io_trps.svl 2020.11)
