# created with PyMOL 2.5.0
@<TRIPOS>MOLECULE
5NJV
27 29 1                 
SMALL
USER_CHARGES
@<TRIPOS>ATOM
1	   N	-3.251	32.142	-5.762	N.3	1	SAM301	0.000	
2	  CA	-3.525	33.337	-6.562	C.3	1	SAM301	0.000	
3	   C	-4.781	34.056	-6.098	C.2	1	SAM301	0.000	
4	   O	-5.062	35.164	-6.623	O.co2	1	SAM301	0.000	
5	  CB	-3.586	32.923	-8.083	C.3	1	SAM301	0.000	
6	  CG	-2.355	33.594	-8.757	C.3	1	SAM301	0.000	
7	  SD	-2.027	32.756	-10.282	S.3	1	SAM301	0.000	
8	  CE	-3.186	32.979	-11.687	C.3	1	SAM301	0.000	
9	 C5'	-0.309	32.169	-10.576	C.3	1	SAM301	0.000	
10	 C4'	0.553	33.426	-10.867	C.3	1	SAM301	0.000	
11	 O4'	1.788	33.016	-11.024	O.3	1	SAM301	0.000	
12	 C3'	0.110	34.175	-12.267	C.3	1	SAM301	0.000	
13	 O3'	-0.491	35.468	-11.964	O.3	1	SAM301	0.000	
14	 C2'	1.226	34.363	-12.932	C.3	1	SAM301	0.000	
15	 O2'	1.311	35.634	-13.483	O.3	1	SAM301	0.000	
16	 C1'	2.372	34.122	-11.880	C.3	1	SAM301	0.000	
17	 OXT	-5.523	33.576	-5.243	O.co2	1	SAM301	0.000	
18	  N1	7.492	33.911	-11.186	N.2	1	SAM301	0.000	
19	  C2	6.588	34.624	-10.513	C.2	1	SAM301	0.000	
20	  N3	5.280	34.564	-10.821	N.2	1	SAM301	0.000	
21	  C4	4.847	33.777	-11.838	C.2	1	SAM301	0.000	
22	  C5	5.729	33.031	-12.554	C.2	1	SAM301	0.000	
23	  C6	7.113	33.108	-12.194	C.2	1	SAM301	0.000	
24	  N6	8.113	32.325	-12.943	N.pl3	1	SAM301	0.000	
25	  N7	5.007	32.336	-13.472	N.2	1	SAM301	0.000	
26	  C8	3.731	32.660	-13.340	C.2	1	SAM301	0.000	
27	  N9	3.623	33.504	-12.340	N.2	1	SAM301	0.000	
@<TRIPOS>BOND
1 1 2 1
2 2 3 1
3 2 5 1
4 3 4 ar
5 3 17 ar
6 5 6 1
7 6 7 1
8 7 8 1
9 7 9 1
10 9 10 1
11 10 11 1
12 10 12 1
13 11 16 1
14 12 13 1
15 12 14 1
16 14 15 1
17 14 16 1
18 16 27 1
19 18 19 ar
20 18 23 ar
21 19 20 ar
22 20 21 ar
23 21 22 ar
24 21 27 ar
25 22 23 ar
26 22 25 ar
27 23 24 1
28 25 26 ar
29 26 27 ar
@<TRIPOS>SUBSTRUCTURE
1	SAM301	1	GROUP	1 A	SAM
