# created with PyMOL 2.5.0
@<TRIPOS>MOLECULE
5EIW
27 29 1                 
SMALL
USER_CHARGES
@<TRIPOS>ATOM
1	   N	38.248	43.074	-7.023	N.3	1	SAM301	0.000	
2	  CA	37.287	44.103	-7.527	C.3	1	SAM301	0.000	
3	   C	38.052	45.234	-8.228	C.2	1	SAM301	0.000	
4	   O	39.311	45.138	-8.269	O.co2	1	SAM301	0.000	
5	  CB	36.431	44.636	-6.375	C.3	1	SAM301	0.000	
6	  CG	35.537	43.502	-5.831	C.3	1	SAM301	0.000	
7	  SD	34.294	44.131	-4.700	S.3	1	SAM301	0.000	
8	  CE	35.087	44.126	-3.126	C.3	1	SAM301	0.000	
9	 C5'	33.331	42.671	-4.550	C.3	1	SAM301	0.000	
10	 C4'	32.317	42.615	-5.688	C.3	1	SAM301	0.000	
11	 O4'	31.656	41.344	-5.559	O.3	1	SAM301	0.000	
12	 C3'	31.228	43.693	-5.755	C.3	1	SAM301	0.000	
13	 O3'	31.303	44.346	-7.020	O.3	1	SAM301	0.000	
14	 C2'	29.915	42.906	-5.596	C.3	1	SAM301	0.000	
15	 O2'	28.880	43.419	-6.427	O.3	1	SAM301	0.000	
16	 C1'	30.330	41.511	-6.038	C.3	1	SAM301	0.000	
17	 OXT	37.375	46.160	-8.747	O.co2	1	SAM301	0.000	
18	  N1	28.155	36.971	-7.169	N.2	1	SAM301	0.000	
19	  C2	28.900	37.815	-7.894	C.2	1	SAM301	0.000	
20	  N3	29.424	38.994	-7.535	N.2	1	SAM301	0.000	
21	  C4	29.140	39.283	-6.256	C.2	1	SAM301	0.000	
22	  C5	28.383	38.518	-5.385	C.2	1	SAM301	0.000	
23	  C6	27.858	37.307	-5.889	C.2	1	SAM301	0.000	
24	  N6	26.999	36.546	-5.213	N.pl3	1	SAM301	0.000	
25	  N7	28.273	39.143	-4.151	N.2	1	SAM301	0.000	
26	  C8	28.944	40.258	-4.306	C.2	1	SAM301	0.000	
27	  N9	29.502	40.405	-5.552	N.2	1	SAM301	0.000	
@<TRIPOS>BOND
1 1 2 1
2 2 3 1
3 2 5 1
4 3 4 ar
5 3 17 ar
6 5 6 1
7 6 7 1
8 7 8 1
9 7 9 1
10 9 10 1
11 10 11 1
12 10 12 1
13 11 16 1
14 12 13 1
15 12 14 1
16 14 15 1
17 14 16 1
18 16 27 1
19 18 19 ar
20 18 23 ar
21 19 20 ar
22 20 21 ar
23 21 22 ar
24 21 27 ar
25 22 23 ar
26 22 25 ar
27 23 24 1
28 25 26 ar
29 26 27 ar
@<TRIPOS>SUBSTRUCTURE
1	SAM301	1	GROUP	1 A	SAM
