# created with PyMOL 2.4.0
@<TRIPOS>MOLECULE
temp
50 52 1                 
SMALL
USER_CHARGES
@<TRIPOS>ATOM
1	   N	38.248	43.074	-7.023	N.4	1	SAM1	0.000	
2	  CA	37.287	44.103	-7.527	C.3	1	SAM1	0.000	
3	   C	38.052	45.234	-8.228	C.2	1	SAM1	0.000	
4	   O	39.311	45.138	-8.269	O.co2	1	SAM1	0.000	
5	  CB	36.431	44.636	-6.375	C.3	1	SAM1	0.000	
6	  CG	35.537	43.502	-5.831	C.3	1	SAM1	0.000	
7	  SD	34.294	44.131	-4.700	S.3	1	SAM1	0.000	
8	  CE	35.087	44.126	-3.126	C.3	1	SAM1	0.000	
9	 C5'	33.331	42.671	-4.550	C.3	1	SAM1	0.000	
10	 C4'	32.317	42.615	-5.688	C.3	1	SAM1	0.000	
11	 O4'	31.656	41.344	-5.559	O.3	1	SAM1	0.000	
12	 C3'	31.228	43.693	-5.755	C.3	1	SAM1	0.000	
13	 O3'	31.303	44.346	-7.020	O.3	1	SAM1	0.000	
14	 C2'	29.915	42.906	-5.596	C.3	1	SAM1	0.000	
15	 O2'	28.880	43.419	-6.427	O.3	1	SAM1	0.000	
16	 C1'	30.330	41.511	-6.038	C.3	1	SAM1	0.000	
17	 OXT	37.375	46.160	-8.747	O.co2	1	SAM1	0.000	
18	  N1	28.155	36.971	-7.169	N.2	1	SAM1	0.000	
19	  C2	28.900	37.815	-7.894	C.2	1	SAM1	0.000	
20	  N3	29.424	38.994	-7.535	N.2	1	SAM1	0.000	
21	  C4	29.140	39.283	-6.256	C.2	1	SAM1	0.000	
22	  C5	28.383	38.518	-5.385	C.2	1	SAM1	0.000	
23	  C6	27.858	37.307	-5.889	C.2	1	SAM1	0.000	
24	  N6	26.999	36.546	-5.213	N.pl3	1	SAM1	0.000	
25	  N7	28.273	39.143	-4.151	N.2	1	SAM1	0.000	
26	  C8	28.944	40.258	-4.306	C.2	1	SAM1	0.000	
27	  N9	29.502	40.405	-5.552	N.2	1	SAM1	0.000	
28	  HA	36.617	43.646	-8.255	 H	1	SAM1	0.000	
29	 HB1	35.804	45.452	-6.735	 H	1	SAM1	0.000	
30	 HB2	37.080	45.001	-5.579	 H	1	SAM1	0.000	
31	 HG1	36.161	42.780	-5.305	 H	1	SAM1	0.000	
32	 HG2	35.039	43.011	-6.667	 H	1	SAM1	0.000	
33	 HE1	35.743	44.993	-3.047	 H	1	SAM1	0.000	
34	 HE2	35.674	43.214	-3.018	 H	1	SAM1	0.000	
35	 HE3	34.334	44.168	-2.339	 H	1	SAM1	0.000	
36	  H1	38.869	43.496	-6.348	 H	1	SAM1	0.000	
37	  H2	38.787	42.710	-7.795	 H	1	SAM1	0.000	
38	  H2	29.107	37.502	-8.907	 H	1	SAM1	0.000	
39	  H3	37.736	42.321	-6.585	 H	1	SAM1	0.000	
40	  H8	29.049	40.995	-3.524	 H	1	SAM1	0.000	
41	 H1'	30.222	41.461	-7.122	 H	1	SAM1	0.000	
42	 H2'	29.504	42.953	-4.588	 H	1	SAM1	0.000	
43	 H2'	28.698	44.318	-6.142	 H	1	SAM1	0.000	
44	 H3'	31.321	44.469	-4.995	 H	1	SAM1	0.000	
45	 H3'	30.579	44.975	-7.065	 H	1	SAM1	0.000	
46	 H4'	32.896	42.780	-6.597	 H	1	SAM1	0.000	
47	 H61	26.692	36.826	-4.293	 H	1	SAM1	0.000	
48	 H62	26.654	35.689	-5.621	 H	1	SAM1	0.000	
49	H5'1	32.806	42.678	-3.595	 H	1	SAM1	0.000	
50	H5'2	33.983	41.799	-4.600	 H	1	SAM1	0.000	
@<TRIPOS>BOND
1 1 2 1
2 1 36 1
3 1 37 1
4 1 39 1
5 2 3 1
6 2 5 1
7 2 28 1
8 3 4 ar
9 3 17 ar
10 5 6 1
11 5 29 1
12 5 30 1
13 6 7 1
14 6 31 1
15 6 32 1
16 7 8 1
17 7 9 1
18 8 33 1
19 8 34 1
20 8 35 1
21 9 10 1
22 9 49 1
23 9 50 1
24 10 11 1
25 10 12 1
26 10 46 1
27 11 16 1
28 12 13 1
29 12 14 1
30 12 44 1
31 13 45 1
32 14 15 1
33 14 16 1
34 14 42 1
35 15 43 1
36 16 27 1
37 16 41 1
38 18 19 ar
39 18 23 ar
40 19 20 ar
41 19 38 1
42 20 21 ar
43 21 22 ar
44 21 27 ar
45 22 23 ar
46 22 25 ar
47 23 24 1
48 24 47 1
49 24 48 1
50 25 26 ar
51 26 27 ar
52 26 40 1
@<TRIPOS>SUBSTRUCTURE
1	SAM1	1	GROUP	1 A	SAM
