@<TRIPOS>MOLECULE
5EIW.A
51 53 1 0 0 
SMALL
USER_CHARGES


@<TRIPOS>ATOM
  1 N       38.2480    43.0740    -7.0230 N.4   1 SAM  -0.8530 
  2 H1      38.8695    43.4959    -6.3478 H     1 SAM   0.4500 
  3 H2      38.7872    42.7099    -7.7955 H     1 SAM   0.4500 
  4 H3      37.7363    42.3212    -6.5852 H     1 SAM   0.4500 
  5 CA      37.2870    44.1030    -7.5270 C.3   1 SAM   0.3170 
  6 HA      36.6171    43.6461    -8.2554 H     1 SAM   0.0800 
  7 C       38.0520    45.2340    -8.2280 C.2   1 SAM   0.9060 
  8 O       39.3110    45.1380    -8.2690 O.co2 1 SAM  -0.9000 
  9 CB      36.4310    44.6360    -6.3750 C.3   1 SAM  -0.1600 
 10 HB1     35.8042    45.4517    -6.7353 H     1 SAM   0.0800 
 11 HB2     37.0799    45.0008    -5.5788 H     1 SAM   0.0800 
 12 CG      35.5370    43.5020    -5.8310 C.3   1 SAM  -0.1525 
 13 HG1     36.1615    42.7797    -5.3052 H     1 SAM   0.0800 
 14 HG2     35.0392    43.0111    -6.6673 H     1 SAM   0.0800 
 15 SD      34.2940    44.1310    -4.7000 S.3   1 SAM   0.9775 
 16 CE      35.0870    44.1260    -3.1260 C.3   1 SAM  -0.2325 
 17 HE1     35.7435    44.9925    -3.0472 H     1 SAM   0.0800 
 18 HE2     35.6743    43.2142    -3.0180 H     1 SAM   0.0800 
 19 HE3     34.3336    44.1682    -2.3394 H     1 SAM   0.0800 
 20 C5'     33.3310    42.6710    -4.5500 C.3   1 SAM  -0.1525 
 21 H5'1    32.8059    42.6780    -3.5948 H     1 SAM   0.0800 
 22 H5'2    33.9826    41.7986    -4.6000 H     1 SAM   0.0800 
 23 C4'     32.3170    42.6150    -5.6880 C.3   1 SAM   0.2000 
 24 H4'     32.8960    42.7803    -6.5966 H     1 SAM   0.0800 
 25 O4'     31.6560    41.3440    -5.5590 O.3   1 SAM  -0.5600 
 26 C3'     31.2280    43.6930    -5.7550 C.3   1 SAM   0.2000 
 27 H3'     31.3209    44.4690    -4.9952 H     1 SAM   0.0800 
 28 O3'     31.3030    44.3460    -7.0200 O.3   1 SAM  -0.6800 
 29 H3'     30.5792    44.9750    -7.0653 H     1 SAM   0.4000 
 30 C2'     29.9150    42.9060    -5.5960 C.3   1 SAM   0.2000 
 31 H2'     29.5039    42.9527    -4.5876 H     1 SAM   0.0800 
 32 O2'     28.8800    43.4190    -6.4270 O.3   1 SAM  -0.6800 
 33 H2'     29.1976    43.3978    -7.3327 H     1 SAM   0.4000 
 34 C1'     30.3300    41.5110    -6.0380 C.3   1 SAM   0.5691 
 35 H1'     30.2219    41.4610    -7.1215 H     1 SAM   0.0800 
 36 OXT     37.3750    46.1600    -8.7470 O.co2 1 SAM  -0.9000 
 37 N1      28.1550    36.9710    -7.1690 N.2   1 SAM  -0.6610 
 38 C2      28.9000    37.8150    -7.8940 C.2   1 SAM   0.6010 
 39 H2      29.1066    37.5021    -8.9068 H     1 SAM   0.0600 
 40 N3      29.4240    38.9940    -7.5350 N.2   1 SAM  -0.6610 
 41 C4      29.1400    39.2830    -6.2560 C.2   1 SAM   0.5000 
 42 C5      28.3830    38.5180    -5.3850 C.2   1 SAM   0.4500 
 43 C6      27.8580    37.3070    -5.8890 C.2   1 SAM   0.6110 
 44 N6      26.9990    36.5460    -5.2130 N.2   1 SAM  -0.2000 
 45 H62     26.6545    35.6886    -5.6209 H     1 SAM   0.4000 
 46 H61     26.6921    36.8263    -4.2925 H     1 SAM   0.4000 
 47 N7      28.2730    39.1430    -4.1510 N.2   1 SAM  -0.6960 
 48 C8      28.9440    40.2580    -4.3060 C.3   1 SAM   0.4551 
 49 H81     29.7447    40.2819    -3.5668 H     1 SAM   0.0800 
 50 H82     28.2653    41.0933    -4.1336 H     1 SAM   0.0800 
 51 N9      29.5020    40.4050    -5.5520 N.pl3 1 SAM  -0.7882 
@<TRIPOS>BOND
  1   1   2  1   
  2   1   3  1   
  3   1   4  1   
  4   1   5  1   
  5   5   6  1   
  6   5   7  1   
  7   5   9  1   
  8   7   8  ar  
  9   7  36  ar  
 10   9  10  1   
 11   9  11  1   
 12   9  12  1   
 13  12  13  1   
 14  12  14  1   
 15  12  15  1   
 16  15  16  1   
 17  15  20  1   
 18  16  17  1   
 19  16  18  1   
 20  16  19  1   
 21  20  21  1   
 22  20  22  1   
 23  20  23  1   
 24  23  24  1   
 25  23  25  1   
 26  23  26  1   
 27  25  34  1   
 28  26  27  1   
 29  26  28  1   
 30  26  30  1   
 31  28  29  1   
 32  30  31  1   
 33  30  32  1   
 34  30  34  1   
 35  32  33  1   
 36  34  35  1   
 37  34  51  1   
 38  37  38  2   
 39  37  43  1   
 40  38  39  1   
 41  38  40  1   
 42  40  41  2   
 43  41  42  1   
 44  41  51  1   
 45  42  43  1   
 46  42  47  2   
 47  43  44  2   
 48  44  45  1   
 49  44  46  1   
 50  47  48  1   
 51  48  49  1   
 52  48  50  1   
 53  48  51  1   
@<TRIPOS>SUBSTRUCTURE
  1 SAM  25 GROUP 4 A **** 0

# MOE 2022.02 (io_trps.svl 2020.11)
