# created with PyMOL 2.5.0
@<TRIPOS>MOLECULE
5EIW
12 12 1                 
SMALL
USER_CHARGES
@<TRIPOS>ATOM
1	  C1	18.930	50.333	-10.796	C.3	1	X0V302	0.000	
2	  N1	23.377	50.016	-8.591	N.pl3	1	X0V302	0.000	
3	  C2	20.357	49.834	-10.846	C.2	1	X0V302	0.000	
4	  N2	24.325	48.433	-10.762	N.pl3	1	X0V302	0.000	
5	  C3	22.513	49.710	-9.699	C.2	1	X0V302	0.000	
6	  C4	21.174	50.193	-9.760	C.2	1	X0V302	0.000	
7	  C6	23.010	48.882	-10.770	C.2	1	X0V302	0.000	
8	  C7	20.815	49.034	-11.889	C.2	1	X0V302	0.000	
9	  C8	22.157	48.555	-11.859	C.2	1	X0V302	0.000	
10	  F1	18.359	50.207	-9.587	 F	1	X0V302	0.000	
11	  F2	18.793	51.616	-11.084	 F	1	X0V302	0.000	
12	  F3	18.100	49.730	-11.599	 F	1	X0V302	0.000	
@<TRIPOS>BOND
1 1 3 1
2 1 10 1
3 1 11 1
4 1 12 1
5 2 5 1
6 3 6 ar
7 3 8 ar
8 4 7 1
9 5 6 ar
10 5 7 ar
11 7 9 ar
12 8 9 ar
@<TRIPOS>SUBSTRUCTURE
1	X0V302	1	GROUP	1 A	X0V
