@<TRIPOS>MOLECULE
5EIW.A
19 19 1 0 0 
SMALL
USER_CHARGES


@<TRIPOS>ATOM
  1 C1      18.9300    50.3330   -10.7960 C.3   1 X0V   1.1635 
  2 N1      23.3770    50.0160    -8.5910 N.pl3 1 X0V  -0.9000 
  3 H11     24.3190    49.6522    -8.5697 H     1 X0V   0.4000 
  4 H12     23.0419    50.5947    -7.8341 H     1 X0V   0.4000 
  5 C2      20.3570    49.8340   -10.8460 C.ar  1 X0V  -0.1435 
  6 N2      24.3250    48.4330   -10.7620 N.pl3 1 X0V  -0.9000 
  7 H21     24.6729    47.8755   -11.5290 H     1 X0V   0.4000 
  8 H22     24.9329    48.6642    -9.9892 H     1 X0V   0.4000 
  9 C3      22.5130    49.7100    -9.6990 C.ar  1 X0V   0.1000 
 10 C4      21.1740    50.1930    -9.7600 C.ar  1 X0V  -0.1500 
 11 H4      20.7895    50.8304    -8.9775 H     1 X0V   0.1500 
 12 C6      23.0100    48.8820   -10.7700 C.ar  1 X0V   0.1000 
 13 C7      20.8150    49.0340   -11.8890 C.ar  1 X0V  -0.1500 
 14 H7      20.1617    48.7795   -12.7105 H     1 X0V   0.1500 
 15 C8      22.1570    48.5550   -11.8590 C.ar  1 X0V  -0.1500 
 16 H8      22.5272    47.9412   -12.6668 H     1 X0V   0.1500 
 17 F1      18.3590    50.2070    -9.5870 F     1 X0V  -0.3400 
 18 F2      18.7930    51.6160   -11.0840 F     1 X0V  -0.3400 
 19 F3      18.1000    49.7300   -11.5990 F     1 X0V  -0.3400 
@<TRIPOS>BOND
  1   1   5  1   
  2   1  17  1   
  3   1  18  1   
  4   1  19  1   
  5   2   3  1   
  6   2   4  1   
  7   2   9  1   
  8   5  10  ar  
  9   5  13  ar  
 10   6   7  1   
 11   6   8  1   
 12   6  12  1   
 13   9  10  ar  
 14   9  12  ar  
 15  10  11  1   
 16  12  15  ar  
 17  13  14  1   
 18  13  15  ar  
 19  15  16  1   
@<TRIPOS>SUBSTRUCTURE
  1 X0V   5 GROUP 4 A **** 0

# MOE 2022.02 (io_trps.svl 2020.11)
