# created with PyMOL 2.5.0
@<TRIPOS>MOLECULE
7TW7
27 29 1                 
SMALL
USER_CHARGES
@<TRIPOS>ATOM
1	   N	-48.468	20.031	12.032	N.3	1	SAM602	0.000	
2	  CA	-47.699	21.237	12.322	C.3	1	SAM602	0.000	
3	   C	-46.980	21.706	11.057	C.2	1	SAM602	0.000	
4	   O	-46.338	22.759	11.046	O.co2	1	SAM602	0.000	
5	  CB	-46.703	20.985	13.446	C.3	1	SAM602	0.000	
6	  CG	-46.237	22.262	14.144	C.3	1	SAM602	0.000	
7	  SD	-45.078	22.030	15.501	S.3	1	SAM602	0.000	
8	  CE	-43.675	21.194	14.704	C.3	1	SAM602	0.000	
9	 C5'	-45.758	20.755	16.580	C.3	1	SAM602	0.000	
10	 C4'	-47.150	21.134	17.052	C.3	1	SAM602	0.000	
11	 O4'	-47.731	19.996	17.695	O.3	1	SAM602	0.000	
12	 C3'	-47.235	22.295	18.055	C.3	1	SAM602	0.000	
13	 O3'	-48.259	23.228	17.716	O.3	1	SAM602	0.000	
14	 C2'	-47.539	21.611	19.398	C.3	1	SAM602	0.000	
15	 O2'	-48.296	22.363	20.306	O.3	1	SAM602	0.000	
16	 C1'	-48.325	20.393	18.950	C.3	1	SAM602	0.000	
17	 OXT	-47.038	21.059	10.012	O.co2	1	SAM602	0.000	
18	  N1	-51.254	16.620	20.825	N.2	1	SAM602	0.000	
19	  C2	-51.666	17.749	20.167	C.2	1	SAM602	0.000	
20	  N3	-50.724	18.657	19.748	N.2	1	SAM602	0.000	
21	  C4	-49.423	18.429	20.011	C.2	1	SAM602	0.000	
22	  C5	-48.987	17.300	20.689	C.2	1	SAM602	0.000	
23	  C6	-49.923	16.378	21.089	C.2	1	SAM602	0.000	
24	  N6	-49.563	15.271	21.730	N.pl3	1	SAM602	0.000	
25	  N7	-47.632	17.340	20.788	N.2	1	SAM602	0.000	
26	  C8	-47.216	18.465	20.167	C.2	1	SAM602	0.000	
27	  N9	-48.311	19.152	19.716	N.2	1	SAM602	0.000	
@<TRIPOS>BOND
1 1 2 1
2 2 3 1
3 2 5 1
4 3 4 ar
5 3 17 ar
6 5 6 1
7 6 7 1
8 7 8 1
9 7 9 1
10 9 10 1
11 10 11 1
12 10 12 1
13 11 16 1
14 12 13 1
15 12 14 1
16 14 15 1
17 14 16 1
18 16 27 1
19 18 19 ar
20 18 23 ar
21 19 20 ar
22 20 21 ar
23 21 22 ar
24 21 27 ar
25 22 23 ar
26 22 25 ar
27 23 24 1
28 25 26 ar
29 26 27 ar
@<TRIPOS>SUBSTRUCTURE
1	SAM602	1	GROUP	1 A	SAM
