# created with PyMOL 2.4.0
@<TRIPOS>MOLECULE
temp
50 52 1                 
SMALL
USER_CHARGES
@<TRIPOS>ATOM
1	   N	-48.468	20.031	12.032	N.4	1	SAM1	0.000	
2	  CA	-47.699	21.237	12.322	C.3	1	SAM1	0.000	
3	   C	-46.980	21.706	11.057	C.2	1	SAM1	0.000	
4	   O	-46.338	22.759	11.046	O.co2	1	SAM1	0.000	
5	  CB	-46.703	20.985	13.446	C.3	1	SAM1	0.000	
6	  CG	-46.237	22.262	14.144	C.3	1	SAM1	0.000	
7	  SD	-45.078	22.030	15.501	S.3	1	SAM1	0.000	
8	  CE	-43.675	21.194	14.704	C.3	1	SAM1	0.000	
9	 C5'	-45.758	20.755	16.580	C.3	1	SAM1	0.000	
10	 C4'	-47.150	21.134	17.052	C.3	1	SAM1	0.000	
11	 O4'	-47.731	19.996	17.695	O.3	1	SAM1	0.000	
12	 C3'	-47.235	22.295	18.055	C.3	1	SAM1	0.000	
13	 O3'	-48.259	23.228	17.716	O.3	1	SAM1	0.000	
14	 C2'	-47.539	21.611	19.398	C.3	1	SAM1	0.000	
15	 O2'	-48.296	22.363	20.306	O.3	1	SAM1	0.000	
16	 C1'	-48.325	20.393	18.950	C.3	1	SAM1	0.000	
17	 OXT	-47.038	21.059	10.012	O.co2	1	SAM1	0.000	
18	  N1	-51.254	16.620	20.825	N.2	1	SAM1	0.000	
19	  C2	-51.666	17.749	20.167	C.2	1	SAM1	0.000	
20	  N3	-50.724	18.657	19.748	N.2	1	SAM1	0.000	
21	  C4	-49.423	18.429	20.011	C.2	1	SAM1	0.000	
22	  C5	-48.987	17.300	20.689	C.2	1	SAM1	0.000	
23	  C6	-49.923	16.378	21.089	C.2	1	SAM1	0.000	
24	  N6	-49.563	15.271	21.730	N.pl3	1	SAM1	0.000	
25	  N7	-47.632	17.340	20.788	N.2	1	SAM1	0.000	
26	  C8	-47.216	18.465	20.167	C.2	1	SAM1	0.000	
27	  N9	-48.311	19.152	19.716	N.2	1	SAM1	0.000	
28	  HA	-48.382	22.020	12.651	 H	1	SAM1	0.000	
29	 HB1	-45.831	20.482	13.028	 H	1	SAM1	0.000	
30	 HB2	-47.175	20.339	14.187	 H	1	SAM1	0.000	
31	 HG1	-47.118	22.769	14.538	 H	1	SAM1	0.000	
32	 HG2	-45.757	22.896	13.398	 H	1	SAM1	0.000	
33	 HE1	-43.182	21.884	14.019	 H	1	SAM1	0.000	
34	 HE2	-44.035	20.327	14.150	 H	1	SAM1	0.000	
35	 HE3	-42.965	20.869	15.465	 H	1	SAM1	0.000	
36	  H1	-47.843	19.299	11.726	 H	1	SAM1	0.000	
37	  H2	-49.140	20.227	11.304	 H	1	SAM1	0.000	
38	  H2	-52.715	17.923	19.980	 H	1	SAM1	0.000	
39	  H3	-48.953	19.733	12.866	 H	1	SAM1	0.000	
40	  H8	-46.188	18.772	20.046	 H	1	SAM1	0.000	
41	 H1'	-49.354	20.747	19.003	 H	1	SAM1	0.000	
42	 H2'	-46.621	21.420	19.954	 H	1	SAM1	0.000	
43	 H2'	-47.799	23.159	20.509	 H	1	SAM1	0.000	
44	 H3'	-46.315	22.879	18.073	 H	1	SAM1	0.000	
45	 H3'	-48.269	23.907	18.395	 H	1	SAM1	0.000	
46	 H4'	-47.668	21.464	16.152	 H	1	SAM1	0.000	
47	 H61	-48.588	15.097	21.930	 H	1	SAM1	0.000	
48	 H62	-50.264	14.603	22.017	 H	1	SAM1	0.000	
49	H5'1	-45.107	20.636	17.446	 H	1	SAM1	0.000	
50	H5'2	-45.810	19.814	16.032	 H	1	SAM1	0.000	
@<TRIPOS>BOND
1 1 2 1
2 1 36 1
3 1 37 1
4 1 39 1
5 2 3 1
6 2 5 1
7 2 28 1
8 3 4 ar
9 3 17 ar
10 5 6 1
11 5 29 1
12 5 30 1
13 6 7 1
14 6 31 1
15 6 32 1
16 7 8 1
17 7 9 1
18 8 33 1
19 8 34 1
20 8 35 1
21 9 10 1
22 9 49 1
23 9 50 1
24 10 11 1
25 10 12 1
26 10 46 1
27 11 16 1
28 12 13 1
29 12 14 1
30 12 44 1
31 13 45 1
32 14 15 1
33 14 16 1
34 14 42 1
35 15 43 1
36 16 27 1
37 16 41 1
38 18 19 ar
39 18 23 ar
40 19 20 ar
41 19 38 1
42 20 21 ar
43 21 22 ar
44 21 27 ar
45 22 23 ar
46 22 25 ar
47 23 24 1
48 24 47 1
49 24 48 1
50 25 26 ar
51 26 27 ar
52 26 40 1
@<TRIPOS>SUBSTRUCTURE
1	SAM1	1	GROUP	1 A	SAM
