@<TRIPOS>MOLECULE
7TW7.A
51 53 1 0 0 
SMALL
USER_CHARGES


@<TRIPOS>ATOM
  1 N      -48.4680    20.0310    12.0320 N.4   1 SAM  -0.8530 
  2 H1     -47.8432    19.2989    11.7258 H     1 SAM   0.4500 
  3 H2     -49.1396    20.2270    11.3036 H     1 SAM   0.4500 
  4 H3     -48.9533    19.7325    12.8659 H     1 SAM   0.4500 
  5 CA     -47.6990    21.2370    12.3220 C.3   1 SAM   0.3170 
  6 HA     -48.3820    22.0201    12.6513 H     1 SAM   0.0800 
  7 C      -46.9800    21.7060    11.0570 C.2   1 SAM   0.9060 
  8 O      -46.3380    22.7590    11.0460 O.co2 1 SAM  -0.9000 
  9 CB     -46.7030    20.9850    13.4460 C.3   1 SAM  -0.1600 
 10 HB1    -45.8309    20.4821    13.0281 H     1 SAM   0.0800 
 11 HB2    -47.1746    20.3392    14.1867 H     1 SAM   0.0800 
 12 CG     -46.2370    22.2620    14.1440 C.3   1 SAM  -0.1525 
 13 HG1    -47.1177    22.7687    14.5385 H     1 SAM   0.0800 
 14 HG2    -45.7571    22.8955    13.3981 H     1 SAM   0.0800 
 15 SD     -45.0780    22.0300    15.5010 S.3   1 SAM   0.9775 
 16 CE     -43.6750    21.1940    14.7040 C.3   1 SAM  -0.2325 
 17 HE1    -43.1825    21.8840    14.0188 H     1 SAM   0.0800 
 18 HE2    -44.0355    20.3272    14.1501 H     1 SAM   0.0800 
 19 HE3    -42.9654    20.8694    15.4651 H     1 SAM   0.0800 
 20 C5'    -45.7580    20.7550    16.5800 C.3   1 SAM  -0.1525 
 21 H5'1   -45.1072    20.6356    17.4462 H     1 SAM   0.0800 
 22 H5'2   -45.8103    19.8140    16.0323 H     1 SAM   0.0800 
 23 C4'    -47.1500    21.1340    17.0520 C.3   1 SAM   0.2000 
 24 H4'    -47.6684    21.4636    16.1516 H     1 SAM   0.0800 
 25 O4'    -47.7310    19.9960    17.6950 O.3   1 SAM  -0.5600 
 26 C3'    -47.2350    22.2950    18.0550 C.3   1 SAM   0.2000 
 27 H3'    -46.3149    22.8791    18.0731 H     1 SAM   0.0800 
 28 O3'    -48.2590    23.2280    17.7160 O.3   1 SAM  -0.6800 
 29 H3'    -48.2692    23.9070    18.3945 H     1 SAM   0.4000 
 30 C2'    -47.5390    21.6110    19.3980 C.3   1 SAM   0.2000 
 31 H2'    -46.6208    21.4202    19.9535 H     1 SAM   0.0800 
 32 O2'    -48.2960    22.3630    20.3060 O.3   1 SAM  -0.6800 
 33 H2'    -49.1320    22.5728    19.8832 H     1 SAM   0.4000 
 34 C1'    -48.3250    20.3930    18.9500 C.3   1 SAM   0.5691 
 35 H1'    -49.3545    20.7472    19.0032 H     1 SAM   0.0800 
 36 OXT    -47.0380    21.0590    10.0120 O.co2 1 SAM  -0.9000 
 37 N1     -51.2540    16.6200    20.8250 N.2   1 SAM  -0.6610 
 38 C2     -51.6660    17.7490    20.1670 C.2   1 SAM   0.6010 
 39 H2     -52.7155    17.9225    19.9805 H     1 SAM   0.0600 
 40 N3     -50.7240    18.6570    19.7480 N.2   1 SAM  -0.6610 
 41 C4     -49.4230    18.4290    20.0110 C.2   1 SAM   0.5000 
 42 C5     -48.9870    17.3000    20.6890 C.2   1 SAM   0.4500 
 43 C6     -49.9230    16.3780    21.0890 C.2   1 SAM   0.6110 
 44 N6     -49.5630    15.2710    21.7300 N.2   1 SAM  -0.2000 
 45 H62    -50.2641    14.6031    22.0173 H     1 SAM   0.4000 
 46 H61    -48.5883    15.0975    21.9299 H     1 SAM   0.4000 
 47 N7     -47.6320    17.3400    20.7880 N.2   1 SAM  -0.6960 
 48 C8     -47.2160    18.4650    20.1670 C.3   1 SAM   0.4551 
 49 H81    -46.5758    18.2029    19.3247 H     1 SAM   0.0800 
 50 H82    -46.6579    19.0853    20.8683 H     1 SAM   0.0800 
 51 N9     -48.3110    19.1520    19.7160 N.pl3 1 SAM  -0.7882 
@<TRIPOS>BOND
  1   1   2  1   
  2   1   3  1   
  3   1   4  1   
  4   1   5  1   
  5   5   6  1   
  6   5   7  1   
  7   5   9  1   
  8   7   8  ar  
  9   7  36  ar  
 10   9  10  1   
 11   9  11  1   
 12   9  12  1   
 13  12  13  1   
 14  12  14  1   
 15  12  15  1   
 16  15  16  1   
 17  15  20  1   
 18  16  17  1   
 19  16  18  1   
 20  16  19  1   
 21  20  21  1   
 22  20  22  1   
 23  20  23  1   
 24  23  24  1   
 25  23  25  1   
 26  23  26  1   
 27  25  34  1   
 28  26  27  1   
 29  26  28  1   
 30  26  30  1   
 31  28  29  1   
 32  30  31  1   
 33  30  32  1   
 34  30  34  1   
 35  32  33  1   
 36  34  35  1   
 37  34  51  1   
 38  37  38  2   
 39  37  43  1   
 40  38  39  1   
 41  38  40  1   
 42  40  41  2   
 43  41  42  1   
 44  41  51  1   
 45  42  43  1   
 46  42  47  2   
 47  43  44  2   
 48  44  45  1   
 49  44  46  1   
 50  47  48  1   
 51  48  49  1   
 52  48  50  1   
 53  48  51  1   
@<TRIPOS>SUBSTRUCTURE
  1 SAM  25 GROUP 4 A **** 0

# MOE 2022.02 (io_trps.svl 2020.11)
