# created with PyMOL 2.5.0
@<TRIPOS>MOLECULE
4JLG
34 37 1                 
SMALL
USER_CHARGES
@<TRIPOS>ATOM
1	   N	-14.939	0.609	-5.782	N.3	1	1L8402	0.000	
2	  CA	-14.030	-0.402	-6.371	C.3	1	1L8402	0.000	
3	 CAH	-14.887	-0.189	-10.802	C.2	1	1L8402	0.000	
4	 CAJ	-16.171	0.390	-10.850	C.2	1	1L8402	0.000	
5	 CAL	-13.744	2.503	-8.522	C.2	1	1L8402	0.000	
6	 CAM	-15.646	3.746	-7.721	C.2	1	1L8402	0.000	
7	 CAN	-10.195	-2.554	-6.506	C.3	1	1L8402	0.000	
8	 CAO	-10.381	-3.338	-5.218	C.3	1	1L8402	0.000	
9	 CAP	-17.309	5.247	-10.651	C.3	1	1L8402	0.000	
10	 CAQ	-16.909	5.194	-9.177	C.3	1	1L8402	0.000	
11	 CAR	-11.559	-1.985	-6.807	C.3	1	1L8402	0.000	
12	 CAS	-11.503	-2.623	-4.471	C.3	1	1L8402	0.000	
13	 CAT	-15.117	4.453	-11.349	C.3	1	1L8402	0.000	
14	 CAZ	-13.925	3.045	-9.787	C.2	1	1L8402	0.000	
15	   C	-13.371	-1.168	-5.213	C.2	1	1L8402	0.000	
16	   O	-13.866	-1.129	-4.089	O.2	1	1L8402	0.000	
17	 NAV	-16.118	5.535	-11.476	N.3	1	1L8402	0.000	
18	 OAB	-12.844	2.168	-5.554	O.2	1	1L8402	0.000	
19	 OAC	-15.096	2.975	-4.849	O.2	1	1L8402	0.000	
20	  CB	-14.791	-1.376	-7.296	C.3	1	1L8402	0.000	
21	 CBA	-15.839	4.300	-8.992	C.2	1	1L8402	0.000	
22	 CBB	-17.003	0.387	-9.723	C.2	1	1L8402	0.000	
23	 CBC	-14.598	2.846	-7.481	C.2	1	1L8402	0.000	
24	 CBD	-14.976	3.940	-10.044	C.2	1	1L8402	0.000	
25	 CBG	-18.315	0.960	-9.773	C.3	1	1L8402	0.000	
26	 NBF	-12.242	-1.848	-5.492	N.pl3	1	1L8402	0.000	
27	 SBH	-14.347	2.129	-5.879	S.o2	1	1L8402	0.000	
28	  CG	-15.241	-0.782	-8.490	C.2	1	1L8402	0.000	
29	 CD1	-14.425	-0.773	-9.625	C.2	1	1L8402	0.000	
30	 CD2	-16.522	-0.205	-8.552	C.2	1	1L8402	0.000	
31	 FAD	-13.112	2.696	-10.721	 F	1	1L8402	0.000	
32	 FAE	-19.135	0.504	-8.755	 F	1	1L8402	0.000	
33	 FAF	-18.263	2.242	-9.707	 F	1	1L8402	0.000	
34	 FAG	-18.866	0.633	-10.836	 F	1	1L8402	0.000	
@<TRIPOS>BOND
1 1 2 1
2 1 27 1
3 2 15 1
4 2 20 1
5 3 4 ar
6 3 29 ar
7 4 22 ar
8 5 14 ar
9 5 23 ar
10 6 21 ar
11 6 23 ar
12 7 8 1
13 7 11 1
14 8 12 1
15 9 10 1
16 9 17 1
17 10 21 1
18 11 26 1
19 12 26 1
20 13 17 1
21 13 24 1
22 14 24 ar
23 14 31 1
24 15 16 2
25 15 26 1
26 18 27 2
27 19 27 2
28 20 28 1
29 21 24 ar
30 22 25 1
31 22 30 ar
32 23 27 1
33 25 32 1
34 25 33 1
35 25 34 1
36 28 29 ar
37 28 30 ar
@<TRIPOS>SUBSTRUCTURE
1	1L8402	1	GROUP	1 A	1L8
