@<TRIPOS>MOLECULE
4JLG.A
60 63 1 0 0 
SMALL
USER_CHARGES


@<TRIPOS>ATOM
  1 N      -14.9390     0.6090    -5.7820 N.am  1 Q1L  -0.9137 
  2 H      -15.8304     0.3826    -5.3646 H     1 Q1L   0.4200 
  3 CA     -14.0300    -0.4020    -6.3710 C.3   1 Q1L   0.3367 
  4 HA     -13.2775     0.0943    -6.9838 H     1 Q1L   0.0800 
  5 CAH    -14.8870    -0.1890   -10.8020 C.ar  1 Q1L  -0.1500 
  6 HAH    -14.2592    -0.1798   -11.6808 H     1 Q1L   0.1500 
  7 CAJ    -16.1710     0.3900   -10.8500 C.ar  1 Q1L  -0.1500 
  8 HAJ    -16.5180     0.8418   -11.7675 H     1 Q1L   0.1500 
  9 CAL    -13.7440     2.5030    -8.5220 C.ar  1 Q1L  -0.1500 
 10 HAL    -12.9343     1.8104    -8.3458 H     1 Q1L   0.1500 
 11 CAM    -15.6460     3.7460    -7.7210 C.ar  1 Q1L  -0.1500 
 12 HAM    -16.3127     4.0152    -6.9151 H     1 Q1L   0.1500 
 13 CAN    -10.1950    -2.5540    -6.5060 C.3   1 Q1L  -0.1600 
 14 HAN1    -9.8658    -3.2103    -7.3116 H     1 Q1L   0.0800 
 15 HAN2    -9.4668    -1.7548    -6.3680 H     1 Q1L   0.0800 
 16 CAO    -10.3810    -3.3380    -5.2180 C.3   1 Q1L  -0.1600 
 17 HAO1    -9.4637    -3.3287    -4.6293 H     1 Q1L   0.0800 
 18 HAO2   -10.6628    -4.3683    -5.4353 H     1 Q1L   0.0800 
 19 CAP    -17.3090     5.2470   -10.6510 C.3   1 Q1L   0.3430 
 20 HAP1   -18.0508     6.0320   -10.7979 H     1 Q1L   0.0800 
 21 HAP2   -17.7323     4.2872   -10.9471 H     1 Q1L   0.0800 
 22 CAQ    -16.9090     5.1940    -9.1770 C.3   1 Q1L  -0.0165 
 23 HAQ1   -17.7616     4.8613    -8.5850 H     1 Q1L   0.0800 
 24 HAQ2   -16.6064     6.1890    -8.8508 H     1 Q1L   0.0800 
 25 CAR    -11.5590    -1.9850    -6.8070 C.3   1 Q1L   0.1401 
 26 HAR1   -12.1170    -2.6603    -7.4557 H     1 Q1L   0.0800 
 27 HAR2   -11.4661    -1.0120    -7.2893 H     1 Q1L   0.0800 
 28 CAS    -11.5030    -2.6230    -4.4710 C.3   1 Q1L   0.1401 
 29 HAS1   -11.0896    -1.9558    -3.7147 H     1 Q1L   0.0800 
 30 HAS2   -12.1629    -3.3479    -3.9944 H     1 Q1L   0.0800 
 31 CAT    -15.1170     4.4530   -11.3490 C.3   1 Q1L   0.4865 
 32 HAT1   -14.1506     4.8436   -11.6679 H     1 Q1L   0.0800 
 33 HAT2   -15.4134     3.6356   -12.0064 H     1 Q1L   0.0800 
 34 CAZ    -13.9250     3.0450    -9.7870 C.ar  1 Q1L   0.1900 
 35 C      -13.3710    -1.1680    -5.2130 C.2   1 Q1L   0.5690 
 36 O      -13.8660    -1.1290    -4.0890 O.2   1 Q1L  -0.5700 
 37 NAV    -16.1180     5.5350   -11.4760 N.4   1 Q1L  -0.9060 
 38 HAV1   -15.7059     6.4050   -11.1703 H     1 Q1L   0.4500 
 39 HAV2   -16.3970     5.6162   -12.4433 H     1 Q1L   0.4500 
 40 OAB    -12.8440     2.1680    -5.5540 O.2   1 Q1L  -0.6500 
 41 OAC    -15.0960     2.9750    -4.8490 O.2   1 Q1L  -0.6500 
 42 CB     -14.7910    -1.3760    -7.2960 C.3   1 Q1L  -0.0165 
 43 HB1    -15.6556    -1.7607    -6.7551 H     1 Q1L   0.0800 
 44 HB2    -14.1254    -2.2007    -7.5507 H     1 Q1L   0.0800 
 45 CBA    -15.8390     4.3000    -8.9920 C.ar  1 Q1L  -0.1435 
 46 CBB    -17.0030     0.3870    -9.7230 C.ar  1 Q1L  -0.1435 
 47 CBC    -14.5980     2.8460    -7.4810 C.ar  1 Q1L  -0.0090 
 48 CBD    -14.9760     3.9400   -10.0440 C.ar  1 Q1L  -0.1435 
 49 CBG    -18.3150     0.9600    -9.7730 C.3   1 Q1L   1.1635 
 50 NBF    -12.2420    -1.8480    -5.4920 N.am  1 Q1L  -0.6602 
 51 SBH    -14.3470     2.1290    -5.8790 S.o2  1 Q1L   1.4470 
 52 CG     -15.2410    -0.7820    -8.4900 C.ar  1 Q1L  -0.1435 
 53 CD1    -14.4250    -0.7730    -9.6250 C.ar  1 Q1L  -0.1500 
 54 HD1    -13.4410    -1.2168    -9.5894 H     1 Q1L   0.1500 
 55 CD2    -16.5220    -0.2050    -8.5520 C.ar  1 Q1L  -0.1500 
 56 HD2    -17.1495    -0.2197    -7.6731 H     1 Q1L   0.1500 
 57 FAD    -13.1120     2.6960   -10.7210 F     1 Q1L  -0.1900 
 58 FAE    -19.1350     0.5040    -8.7550 F     1 Q1L  -0.3400 
 59 FAF    -18.2630     2.2420    -9.7070 F     1 Q1L  -0.3400 
 60 FAG    -18.8660     0.6330   -10.8360 F     1 Q1L  -0.3400 
@<TRIPOS>BOND
  1   1   2  1   
  2   1   3  1   
  3   1  51  am  
  4   3   4  1   
  5   3  35  1   
  6   3  42  1   
  7   5   6  1   
  8   5   7  ar  
  9   5  53  ar  
 10   7   8  1   
 11   7  46  ar  
 12   9  10  1   
 13   9  34  ar  
 14   9  47  ar  
 15  11  12  1   
 16  11  45  ar  
 17  11  47  ar  
 18  13  14  1   
 19  13  15  1   
 20  13  16  1   
 21  13  25  1   
 22  16  17  1   
 23  16  18  1   
 24  16  28  1   
 25  19  20  1   
 26  19  21  1   
 27  19  22  1   
 28  19  37  1   
 29  22  23  1   
 30  22  24  1   
 31  22  45  1   
 32  25  26  1   
 33  25  27  1   
 34  25  50  1   
 35  28  29  1   
 36  28  30  1   
 37  28  50  1   
 38  31  32  1   
 39  31  33  1   
 40  31  37  1   
 41  31  48  1   
 42  34  48  ar  
 43  34  57  1   
 44  35  36  2   
 45  35  50  am  
 46  37  38  1   
 47  37  39  1   
 48  40  51  2   
 49  41  51  2   
 50  42  43  1   
 51  42  44  1   
 52  42  52  1   
 53  45  48  ar  
 54  46  49  1   
 55  46  55  ar  
 56  47  51  1   
 57  49  58  1   
 58  49  59  1   
 59  49  60  1   
 60  52  53  ar  
 61  52  55  ar  
 62  53  54  1   
 63  55  56  1   
@<TRIPOS>SUBSTRUCTURE
  1 Q1L   9 GROUP 4 A **** 0

# MOE 2022.02 (io_trps.svl 2020.11)
