@<TRIPOS>MOLECULE
4JLG.A
51 53 1 0 0 
SMALL
USER_CHARGES


@<TRIPOS>ATOM
  1 N       -8.2530   -12.0870    -6.0860 N.4   1 SAM  -0.8530 
  2 H1      -7.6640   -12.5034    -5.3790 H     1 SAM   0.4500 
  3 H2      -8.5628   -12.8012    -6.7294 H     1 SAM   0.4500 
  4 H3      -9.0553   -11.6588    -5.6465 H     1 SAM   0.4500 
  5 CA      -7.4970   -11.0720    -6.8130 C.3   1 SAM   0.3170 
  6 HA      -8.1568   -10.6420    -7.5666 H     1 SAM   0.0800 
  7 C       -6.3070   -11.6460    -7.5950 C.2   1 SAM   0.9060 
  8 O       -6.0770   -12.8520    -7.6080 O.co2 1 SAM  -0.9000 
  9 CB      -7.0500    -9.9870    -5.8370 C.3   1 SAM  -0.1600 
 10 HB1     -6.1816    -9.4803    -6.2580 H     1 SAM   0.0800 
 11 HB2     -6.7726   -10.4620    -4.8960 H     1 SAM   0.0800 
 12 CG      -8.1350    -8.9370    -5.5510 C.3   1 SAM  -0.1525 
 13 HG1     -7.8135    -8.3120    -4.7179 H     1 SAM   0.0800 
 14 HG2     -9.0615    -9.4467    -5.2864 H     1 SAM   0.0800 
 15 SD      -8.4310    -7.8880    -6.9950 S.3   1 SAM   0.9775 
 16 CE      -8.4080    -6.2470    -6.2230 C.3   1 SAM  -0.2325 
 17 HE1     -7.3791    -5.9649    -5.9998 H     1 SAM   0.0800 
 18 HE2     -8.9864    -6.2718    -5.2995 H     1 SAM   0.0800 
 19 HE3     -8.8447    -5.5181    -6.9057 H     1 SAM   0.0800 
 20 C5'    -10.2360    -7.9940    -7.2040 C.3   1 SAM  -0.1525 
 21 H5'1   -10.5561    -7.1456    -7.8088 H     1 SAM   0.0800 
 22 H5'2   -10.6944    -7.9302    -6.2171 H     1 SAM   0.0800 
 23 C4'    -10.7360    -9.2670    -7.8750 C.3   1 SAM   0.2000 
 24 H4'    -10.1464    -9.3562    -8.7874 H     1 SAM   0.0800 
 25 O4'    -10.5960   -10.3590    -6.9880 O.3   1 SAM  -0.5600 
 26 C3'    -12.2250    -9.2370    -8.2100 C.3   1 SAM   0.2000 
 27 H3'    -12.7932    -8.5946    -7.5373 H     1 SAM   0.0800 
 28 O3'    -12.4660    -8.7340    -9.4970 O.3   1 SAM  -0.6800 
 29 H3'    -13.4113    -8.7854    -9.6564 H     1 SAM   0.4000 
 30 C2'    -12.5970   -10.6950    -8.1510 C.3   1 SAM   0.2000 
 31 H2'    -13.6654   -10.8721    -8.0277 H     1 SAM   0.0800 
 32 O2'    -12.1540   -11.3250    -9.3380 O.3   1 SAM  -0.6800 
 33 H2'    -12.6448   -10.9436   -10.0696 H     1 SAM   0.4000 
 34 C1'    -11.7280   -11.2020    -7.0200 C.3   1 SAM   0.5691 
 35 H1'    -11.4770   -12.2466    -7.2040 H     1 SAM   0.0800 
 36 OXT     -5.5590   -10.9140    -8.2540 O.co2 1 SAM  -0.9000 
 37 N1     -15.2240   -13.5850    -3.9660 N.2   1 SAM  -0.6610 
 38 C2     -14.8480   -13.9170    -5.2500 C.2   1 SAM   0.6010 
 39 H2     -15.2901   -14.7721    -5.7397 H     1 SAM   0.0600 
 40 N3     -13.9080   -13.1560    -5.9060 N.2   1 SAM  -0.6610 
 41 C4     -13.3330   -12.0930    -5.2790 C.2   1 SAM   0.5000 
 42 C5     -13.7050   -11.7370    -3.9830 C.2   1 SAM   0.4500 
 43 C6     -14.6660   -12.5040    -3.3180 C.2   1 SAM   0.6110 
 44 N6     -15.0640   -12.2340    -2.0720 N.2   1 SAM  -0.2000 
 45 H62    -15.7615   -12.8139    -1.6278 H     1 SAM   0.4000 
 46 H61    -14.6675   -11.4499    -1.5740 H     1 SAM   0.4000 
 47 N7     -12.9740   -10.6440    -3.6400 N.2   1 SAM  -0.6960 
 48 C8     -12.1860   -10.2980    -4.6800 C.3   1 SAM   0.4551 
 49 H81    -11.1399   -10.3329    -4.3756 H     1 SAM   0.0800 
 50 H82    -12.4350    -9.2893    -5.0096 H     1 SAM   0.0800 
 51 N9     -12.3990   -11.1850    -5.7050 N.pl3 1 SAM  -0.7882 
@<TRIPOS>BOND
  1   1   2  1   
  2   1   3  1   
  3   1   4  1   
  4   1   5  1   
  5   5   6  1   
  6   5   7  1   
  7   5   9  1   
  8   7   8  ar  
  9   7  36  ar  
 10   9  10  1   
 11   9  11  1   
 12   9  12  1   
 13  12  13  1   
 14  12  14  1   
 15  12  15  1   
 16  15  16  1   
 17  15  20  1   
 18  16  17  1   
 19  16  18  1   
 20  16  19  1   
 21  20  21  1   
 22  20  22  1   
 23  20  23  1   
 24  23  24  1   
 25  23  25  1   
 26  23  26  1   
 27  25  34  1   
 28  26  27  1   
 29  26  28  1   
 30  26  30  1   
 31  28  29  1   
 32  30  31  1   
 33  30  32  1   
 34  30  34  1   
 35  32  33  1   
 36  34  35  1   
 37  34  51  1   
 38  37  38  2   
 39  37  43  1   
 40  38  39  1   
 41  38  40  1   
 42  40  41  2   
 43  41  42  1   
 44  41  51  1   
 45  42  43  1   
 46  42  47  2   
 47  43  44  2   
 48  44  45  1   
 49  44  46  1   
 50  47  48  1   
 51  48  49  1   
 52  48  50  1   
 53  48  51  1   
@<TRIPOS>SUBSTRUCTURE
  1 SAM  25 GROUP 4 A **** 0

# MOE 2022.02 (io_trps.svl 2020.11)
