# created with PyMOL 2.5.0
@<TRIPOS>MOLECULE
4JLG
27 29 1                 
SMALL
USER_CHARGES
@<TRIPOS>ATOM
1	   N	-8.253	-12.087	-6.086	N.3	1	SAM401	0.000	
2	  CA	-7.497	-11.072	-6.813	C.3	1	SAM401	0.000	
3	   C	-6.307	-11.646	-7.595	C.2	1	SAM401	0.000	
4	   O	-6.077	-12.852	-7.608	O.co2	1	SAM401	0.000	
5	  CB	-7.050	-9.987	-5.837	C.3	1	SAM401	0.000	
6	  CG	-8.135	-8.937	-5.551	C.3	1	SAM401	0.000	
7	  SD	-8.431	-7.888	-6.995	S.3	1	SAM401	0.000	
8	  CE	-8.408	-6.247	-6.223	C.3	1	SAM401	0.000	
9	 C5'	-10.236	-7.994	-7.204	C.3	1	SAM401	0.000	
10	 C4'	-10.736	-9.267	-7.875	C.3	1	SAM401	0.000	
11	 O4'	-10.596	-10.359	-6.988	O.3	1	SAM401	0.000	
12	 C3'	-12.225	-9.237	-8.210	C.3	1	SAM401	0.000	
13	 O3'	-12.466	-8.734	-9.497	O.3	1	SAM401	0.000	
14	 C2'	-12.597	-10.695	-8.151	C.3	1	SAM401	0.000	
15	 O2'	-12.154	-11.325	-9.338	O.3	1	SAM401	0.000	
16	 C1'	-11.728	-11.202	-7.020	C.3	1	SAM401	0.000	
17	 OXT	-5.559	-10.914	-8.254	O.co2	1	SAM401	0.000	
18	  N1	-15.224	-13.585	-3.966	N.2	1	SAM401	0.000	
19	  C2	-14.848	-13.917	-5.250	C.2	1	SAM401	0.000	
20	  N3	-13.908	-13.156	-5.906	N.2	1	SAM401	0.000	
21	  C4	-13.333	-12.093	-5.279	C.2	1	SAM401	0.000	
22	  C5	-13.705	-11.737	-3.983	C.2	1	SAM401	0.000	
23	  C6	-14.666	-12.504	-3.318	C.2	1	SAM401	0.000	
24	  N6	-15.064	-12.234	-2.072	N.pl3	1	SAM401	0.000	
25	  N7	-12.974	-10.644	-3.640	N.2	1	SAM401	0.000	
26	  C8	-12.186	-10.298	-4.680	C.2	1	SAM401	0.000	
27	  N9	-12.399	-11.185	-5.705	N.2	1	SAM401	0.000	
@<TRIPOS>BOND
1 1 2 1
2 2 3 1
3 2 5 1
4 3 4 ar
5 3 17 ar
6 5 6 1
7 6 7 1
8 7 8 1
9 7 9 1
10 9 10 1
11 10 11 1
12 10 12 1
13 11 16 1
14 12 13 1
15 12 14 1
16 14 15 1
17 14 16 1
18 16 27 1
19 18 19 ar
20 18 23 ar
21 19 20 ar
22 20 21 ar
23 21 22 ar
24 21 27 ar
25 22 23 ar
26 22 25 ar
27 23 24 1
28 25 26 ar
29 26 27 ar
@<TRIPOS>SUBSTRUCTURE
1	SAM401	1	GROUP	1 A	SAM
