# created with PyMOL 2.4.0
@<TRIPOS>MOLECULE
temp
50 52 1                 
SMALL
USER_CHARGES
@<TRIPOS>ATOM
1	   N	-8.253	-12.087	-6.086	N.4	1	SAM1	0.000	
2	  CA	-7.497	-11.072	-6.813	C.3	1	SAM1	0.000	
3	   C	-6.307	-11.646	-7.595	C.2	1	SAM1	0.000	
4	   O	-6.077	-12.852	-7.608	O.co2	1	SAM1	0.000	
5	  CB	-7.050	-9.987	-5.837	C.3	1	SAM1	0.000	
6	  CG	-8.135	-8.937	-5.551	C.3	1	SAM1	0.000	
7	  SD	-8.431	-7.888	-6.995	S.3	1	SAM1	0.000	
8	  CE	-8.408	-6.247	-6.223	C.3	1	SAM1	0.000	
9	 C5'	-10.236	-7.994	-7.204	C.3	1	SAM1	0.000	
10	 C4'	-10.736	-9.267	-7.875	C.3	1	SAM1	0.000	
11	 O4'	-10.596	-10.359	-6.988	O.3	1	SAM1	0.000	
12	 C3'	-12.225	-9.237	-8.210	C.3	1	SAM1	0.000	
13	 O3'	-12.466	-8.734	-9.497	O.3	1	SAM1	0.000	
14	 C2'	-12.597	-10.695	-8.151	C.3	1	SAM1	0.000	
15	 O2'	-12.154	-11.325	-9.338	O.3	1	SAM1	0.000	
16	 C1'	-11.728	-11.202	-7.020	C.3	1	SAM1	0.000	
17	 OXT	-5.559	-10.914	-8.254	O.co2	1	SAM1	0.000	
18	  N1	-15.224	-13.585	-3.966	N.2	1	SAM1	0.000	
19	  C2	-14.848	-13.917	-5.250	C.2	1	SAM1	0.000	
20	  N3	-13.908	-13.156	-5.906	N.2	1	SAM1	0.000	
21	  C4	-13.333	-12.093	-5.279	C.2	1	SAM1	0.000	
22	  C5	-13.705	-11.737	-3.983	C.2	1	SAM1	0.000	
23	  C6	-14.666	-12.504	-3.318	C.2	1	SAM1	0.000	
24	  N6	-15.064	-12.234	-2.072	N.pl3	1	SAM1	0.000	
25	  N7	-12.974	-10.644	-3.640	N.2	1	SAM1	0.000	
26	  C8	-12.186	-10.298	-4.680	C.2	1	SAM1	0.000	
27	  N9	-12.399	-11.185	-5.705	N.2	1	SAM1	0.000	
28	  HA	-8.157	-10.642	-7.567	 H	1	SAM1	0.000	
29	 HB1	-6.182	-9.480	-6.258	 H	1	SAM1	0.000	
30	 HB2	-6.773	-10.462	-4.896	 H	1	SAM1	0.000	
31	 HG1	-7.813	-8.312	-4.718	 H	1	SAM1	0.000	
32	 HG2	-9.061	-9.447	-5.286	 H	1	SAM1	0.000	
33	 HE1	-7.379	-5.965	-6.000	 H	1	SAM1	0.000	
34	 HE2	-8.986	-6.272	-5.299	 H	1	SAM1	0.000	
35	 HE3	-8.845	-5.518	-6.906	 H	1	SAM1	0.000	
36	  H1	-7.664	-12.503	-5.379	 H	1	SAM1	0.000	
37	  H2	-8.563	-12.801	-6.729	 H	1	SAM1	0.000	
38	  H2	-15.290	-14.772	-5.740	 H	1	SAM1	0.000	
39	  H3	-9.055	-11.659	-5.647	 H	1	SAM1	0.000	
40	  H8	-11.502	-9.462	-4.702	 H	1	SAM1	0.000	
41	 H1'	-11.477	-12.247	-7.204	 H	1	SAM1	0.000	
42	 H2'	-13.665	-10.872	-8.028	 H	1	SAM1	0.000	
43	 H2'	-12.645	-10.944	-10.070	 H	1	SAM1	0.000	
44	 H3'	-12.793	-8.595	-7.537	 H	1	SAM1	0.000	
45	 H3'	-13.411	-8.785	-9.656	 H	1	SAM1	0.000	
46	 H4'	-10.146	-9.356	-8.787	 H	1	SAM1	0.000	
47	 H61	-14.667	-11.450	-1.574	 H	1	SAM1	0.000	
48	 H62	-15.762	-12.814	-1.628	 H	1	SAM1	0.000	
49	H5'1	-10.556	-7.146	-7.809	 H	1	SAM1	0.000	
50	H5'2	-10.694	-7.930	-6.217	 H	1	SAM1	0.000	
@<TRIPOS>BOND
1 1 2 1
2 1 36 1
3 1 37 1
4 1 39 1
5 2 3 1
6 2 5 1
7 2 28 1
8 3 4 ar
9 3 17 ar
10 5 6 1
11 5 29 1
12 5 30 1
13 6 7 1
14 6 31 1
15 6 32 1
16 7 8 1
17 7 9 1
18 8 33 1
19 8 34 1
20 8 35 1
21 9 10 1
22 9 49 1
23 9 50 1
24 10 11 1
25 10 12 1
26 10 46 1
27 11 16 1
28 12 13 1
29 12 14 1
30 12 44 1
31 13 45 1
32 14 15 1
33 14 16 1
34 14 42 1
35 15 43 1
36 16 27 1
37 16 41 1
38 18 19 ar
39 18 23 ar
40 19 20 ar
41 19 38 1
42 20 21 ar
43 21 22 ar
44 21 27 ar
45 22 23 ar
46 22 25 ar
47 23 24 1
48 24 47 1
49 24 48 1
50 25 26 ar
51 26 27 ar
52 26 40 1
@<TRIPOS>SUBSTRUCTURE
1	SAM1	1	GROUP	1 A	SAM
