# created with PyMOL 2.5.2
@<TRIPOS>MOLECULE
7KZ
29 31 1                 
SMALL
USER_CHARGES
@<TRIPOS>ATOM
1	  C4	-4.373	-3.604	18.936	C.3	1	7KZ0	0.000	
2	  C5	-5.154	-4.062	17.703	C.3	1	7KZ0	0.000	
3	  C6	-7.492	-4.517	17.058	C.2	1	7KZ0	0.000	
4	  N1	-8.781	-4.566	17.380	N.2	1	7KZ0	0.000	
5	  C7	-9.700	-4.929	16.497	C.2	1	7KZ0	0.000	
6	  C8	-11.450	-4.619	18.203	C.3	1	7KZ0	0.000	
7	  N2	-11.035	-4.974	16.844	N.pl3	1	7KZ0	0.000	
8	  C9	-12.778	-5.308	18.530	C.3	1	7KZ0	0.000	
9	 C10	-13.236	-4.887	19.928	C.3	1	7KZ0	0.000	
10	 C11	-13.970	-3.000	21.256	C.3	1	7KZ0	0.000	
11	 C12	-12.127	-2.743	19.707	C.3	1	7KZ0	0.000	
12	  N3	-13.398	-3.427	19.972	N.3	1	7KZ0	0.000	
13	 C13	-11.635	-3.102	18.304	C.3	1	7KZ0	0.000	
14	 C14	-9.280	-5.268	15.188	C.2	1	7KZ0	0.000	
15	 C15	-10.189	-5.661	14.198	C.2	1	7KZ0	0.000	
16	  N4	-7.044	-4.823	15.856	N.2	1	7KZ0	0.000	
17	 C19	-6.536	-6.154	11.152	C.3	1	7KZ0	0.000	
18	  O1	-7.942	-6.237	11.398	O.3	1	7KZ0	0.000	
19	 C18	-8.369	-5.915	12.647	C.2	1	7KZ0	0.000	
20	 C16	-9.735	-5.978	12.950	C.2	1	7KZ0	0.000	
21	   O	-10.620	-6.360	11.989	O.3	1	7KZ0	0.000	
22	 C17	-11.999	-6.404	12.359	C.3	1	7KZ0	0.000	
23	 C20	-7.454	-5.533	13.604	C.2	1	7KZ0	0.000	
24	 C21	-7.896	-5.202	14.890	C.2	1	7KZ0	0.000	
25	   N	-6.581	-4.125	18.024	N.pl3	1	7KZ0	0.000	
26	  C1	-2.882	-3.537	18.600	C.3	1	7KZ0	0.000	
27	  C2	-2.101	-3.079	19.833	C.3	1	7KZ0	0.000	
28	  C3	-0.609	-3.012	19.497	C.3	1	7KZ0	0.000	
29	 C22	0.171	-2.554	20.731	C.3	1	7KZ0	0.000	
@<TRIPOS>BOND
1 1 2 1
2 2 25 1
3 17 18 1
4 3 16 2
5 16 24 1
6 23 24 2
7 19 23 1
8 3 25 1
9 18 19 1
10 3 4 1
11 14 24 1
12 19 20 2
13 4 5 2
14 5 14 1
15 14 15 2
16 20 21 1
17 15 20 1
18 5 7 1
19 21 22 1
20 6 13 1
21 11 13 1
22 6 7 1
23 6 8 1
24 11 12 1
25 8 9 1
26 9 12 1
27 10 12 1
28 1 26 1
29 26 27 1
30 27 28 1
31 28 29 1
@<TRIPOS>SUBSTRUCTURE
1	7KZ0	1	GROUP	1 ****	7KZ
