@<TRIPOS>MOLECULE
7KZ.****
66 68 1 0 0 
SMALL
USER_CHARGES


@<TRIPOS>ATOM
  1 C4      16.0270    34.6640    19.6860 C.3   1 Q7KZ0  -0.1600 
  2 H41     16.1266    35.4128    20.4718 H     1 Q7KZ0   0.0800 
  3 H42     16.3413    33.6927    20.0679 H     1 Q7KZ0   0.0800 
  4 C5      16.9070    35.0530    18.4970 C.3   1 Q7KZ0   0.2091 
  5 H51     16.5932    36.0245    18.1153 H     1 Q7KZ0   0.0800 
  6 H52     16.8073    34.3044    17.7110 H     1 Q7KZ0   0.0800 
  7 C6      19.2920    35.4630    18.0170 C.ar  1 Q7KZ0   0.7710 
  8 N1      20.5530    35.5230    18.4380 N.ar  1 Q7KZ0  -0.6200 
  9 C7      21.5420    35.8340    17.6130 C.ar  1 Q7KZ0   0.4100 
 10 C8      23.1490    35.6060    19.4660 C.3   1 Q7KZ0   0.2891 
 11 H8      22.3335    35.9707    20.0905 H     1 Q7KZ0   0.0800 
 12 N2      22.8450    35.8910    18.0620 N.pl3 1 Q7KZ0  -0.8691 
 13 H2      23.5895    36.1293    17.4224 H     1 Q7KZ0   0.4000 
 14 C9      24.4530    36.3050    19.8610 C.3   1 Q7KZ0  -0.1600 
 15 H91     24.3309    37.3840    19.7661 H     1 Q7KZ0   0.0800 
 16 H92     25.2578    35.9714    19.2059 H     1 Q7KZ0   0.0800 
 17 C10     24.7960    35.9550    21.3110 C.3   1 Q7KZ0   0.3430 
 18 H101    23.9973    36.3014    21.9669 H     1 Q7KZ0   0.0800 
 19 H102    25.7314    36.4400    21.5902 H     1 Q7KZ0   0.0800 
 20 C11     25.4050    34.1380    22.7890 C.3   1 Q7KZ0   0.2630 
 21 H111    26.3347    34.6638    23.0064 H     1 Q7KZ0   0.0800 
 22 H112    25.5759    33.0626    22.8374 H     1 Q7KZ0   0.0800 
 23 H113    24.6487    34.4190    23.5219 H     1 Q7KZ0   0.0800 
 24 C12     23.6880    33.8090    21.1150 C.3   1 Q7KZ0   0.3430 
 25 H121    22.8945    34.1648    21.7722 H     1 Q7KZ0   0.0800 
 26 H122    23.8190    32.7356    21.2517 H     1 Q7KZ0   0.0800 
 27 N3      24.9410    34.5000    21.4430 N.4   1 Q7KZ0  -0.9590 
 28 H3      25.6409    34.1988    20.7800 H     1 Q7KZ0   0.4500 
 29 C13     23.3110    34.0950    19.6600 C.3   1 Q7KZ0  -0.1600 
 30 H131    24.0967    33.7256    19.0010 H     1 Q7KZ0   0.0800 
 31 H132    22.3723    33.5947    19.4221 H     1 Q7KZ0   0.0800 
 32 C14     21.2300    36.1060    16.2590 C.ar  1 Q7KZ0   0.0000 
 33 C15     22.2180    36.4420    15.3250 C.ar  1 Q7KZ0  -0.1500 
 34 H15     23.2530    36.5007    15.6278 H     1 Q7KZ0   0.1500 
 35 N4      18.9440    35.7070    16.7690 N.ar  1 Q7KZ0  -0.1790 
 36 H4      17.9726    35.6498    16.4983 H     1 Q7KZ0   0.4570 
 37 C19     18.8210    36.7920    11.9770 C.3   1 Q7KZ0   0.0400 
 38 H191    18.7002    37.0201    10.9180 H     1 Q7KZ0   0.0800 
 39 H192    18.2485    37.5054    12.5699 H     1 Q7KZ0   0.0800 
 40 H193    18.4599    35.7827    12.1748 H     1 Q7KZ0   0.0800 
 41 O1      20.2040    36.8810    12.3290 O.3   1 Q7KZ0  -0.3625 
 42 C18     20.5280    36.6240    13.6230 C.ar  1 Q7KZ0   0.0825 
 43 C16     21.8670    36.6950    14.0300 C.ar  1 Q7KZ0   0.0825 
 44 O       22.8270    37.0220    13.1240 O.3   1 Q7KZ0  -0.3625 
 45 C17     24.1740    37.0790    13.5990 C.3   1 Q7KZ0   0.0400 
 46 H171    24.8377    37.3499    12.7778 H     1 Q7KZ0   0.0800 
 47 H172    24.4621    36.1042    13.9925 H     1 Q7KZ0   0.0800 
 48 H173    24.2494    37.8264    14.3888 H     1 Q7KZ0   0.0800 
 49 C20     19.5370    36.2970    14.5230 C.ar  1 Q7KZ0  -0.1500 
 50 H20     18.5071    36.2462    14.2020 H     1 Q7KZ0   0.1500 
 51 C21     19.8730    36.0310    15.8560 C.ar  1 Q7KZ0   0.3610 
 52 N       18.3050    35.1260    18.9270 N.pl3 1 Q7KZ0  -0.8691 
 53 H       18.5489    34.9305    19.8874 H     1 Q7KZ0   0.4000 
 54 C1      14.5670    34.5870    19.2380 C.3   1 Q7KZ0  -0.1600 
 55 H11     14.4674    33.8382    18.4522 H     1 Q7KZ0   0.0800 
 56 H12     14.2527    35.5583    18.8561 H     1 Q7KZ0   0.0800 
 57 C2      13.6870    34.1980    20.4270 C.3   1 Q7KZ0  -0.1600 
 58 H21     13.7857    34.9473    21.2125 H     1 Q7KZ0   0.0800 
 59 H22     14.0016    33.2270    20.8095 H     1 Q7KZ0   0.0800 
 60 C3      12.2260    34.1200    19.9770 C.3   1 Q7KZ0  -0.1600 
 61 H31     12.1270    33.3706    19.1917 H     1 Q7KZ0   0.0800 
 62 H32     11.9111    35.0909    19.5945 H     1 Q7KZ0   0.0800 
 63 C22     11.3470    33.7310    21.1670 C.3   1 Q7KZ0  -0.2400 
 64 H221    11.6620    32.7601    21.5493 H     1 Q7KZ0   0.0800 
 65 H222    10.3064    33.6754    20.8473 H     1 Q7KZ0   0.0800 
 66 H223    11.4462    34.4804    21.9523 H     1 Q7KZ0   0.0800 
@<TRIPOS>BOND
  1   1   2  1   
  2   1   3  1   
  3   1   4  1   
  4   1  54  1   
  5   4   5  1   
  6   4   6  1   
  7   4  52  1   
  8   7   8  ar  
  9   7  35  ar  
 10   7  52  1   
 11   8   9  ar  
 12   9  12  1   
 13   9  32  ar  
 14  10  11  1   
 15  10  12  1   
 16  10  14  1   
 17  10  29  1   
 18  12  13  1   
 19  14  15  1   
 20  14  16  1   
 21  14  17  1   
 22  17  18  1   
 23  17  19  1   
 24  17  27  1   
 25  20  21  1   
 26  20  22  1   
 27  20  23  1   
 28  20  27  1   
 29  24  25  1   
 30  24  26  1   
 31  24  27  1   
 32  24  29  1   
 33  27  28  1   
 34  29  30  1   
 35  29  31  1   
 36  32  33  ar  
 37  32  51  ar  
 38  33  34  1   
 39  33  43  ar  
 40  35  36  1   
 41  35  51  ar  
 42  37  38  1   
 43  37  39  1   
 44  37  40  1   
 45  37  41  1   
 46  41  42  1   
 47  42  43  ar  
 48  42  49  ar  
 49  43  44  1   
 50  44  45  1   
 51  45  46  1   
 52  45  47  1   
 53  45  48  1   
 54  49  50  1   
 55  49  51  ar  
 56  52  53  1   
 57  54  55  1   
 58  54  56  1   
 59  54  57  1   
 60  57  58  1   
 61  57  59  1   
 62  57  60  1   
 63  60  61  1   
 64  60  62  1   
 65  60  63  1   
 66  63  64  1   
 67  63  65  1   
 68  63  66  1   
@<TRIPOS>SUBSTRUCTURE
  1 Q7KZ0   8 GROUP 4 **** **** 0

# MOE 2022.02 (io_trps.svl 2020.11)
