# created with PyMOL 2.5.2
@<TRIPOS>MOLECULE
7KZ
29 31 1                 
SMALL
USER_CHARGES
@<TRIPOS>ATOM
1	  C4	16.027	34.664	19.686	C.3	1	7KZ0	0.000	
2	  C5	16.907	35.053	18.497	C.3	1	7KZ0	0.000	
3	  C6	19.292	35.463	18.017	C.2	1	7KZ0	0.000	
4	  N1	20.553	35.523	18.438	N.2	1	7KZ0	0.000	
5	  C7	21.542	35.834	17.613	C.2	1	7KZ0	0.000	
6	  C8	23.149	35.606	19.466	C.3	1	7KZ0	0.000	
7	  N2	22.845	35.891	18.062	N.pl3	1	7KZ0	0.000	
8	  C9	24.453	36.305	19.861	C.3	1	7KZ0	0.000	
9	 C10	24.796	35.955	21.311	C.3	1	7KZ0	0.000	
10	 C11	25.405	34.138	22.789	C.3	1	7KZ0	0.000	
11	 C12	23.688	33.809	21.115	C.3	1	7KZ0	0.000	
12	  N3	24.941	34.500	21.443	N.3	1	7KZ0	0.000	
13	 C13	23.311	34.095	19.660	C.3	1	7KZ0	0.000	
14	 C14	21.230	36.106	16.259	C.2	1	7KZ0	0.000	
15	 C15	22.218	36.442	15.325	C.2	1	7KZ0	0.000	
16	  N4	18.944	35.707	16.769	N.2	1	7KZ0	0.000	
17	 C19	18.821	36.792	11.977	C.3	1	7KZ0	0.000	
18	  O1	20.204	36.881	12.329	O.3	1	7KZ0	0.000	
19	 C18	20.528	36.624	13.623	C.2	1	7KZ0	0.000	
20	 C16	21.867	36.695	14.030	C.2	1	7KZ0	0.000	
21	   O	22.827	37.022	13.124	O.3	1	7KZ0	0.000	
22	 C17	24.174	37.079	13.599	C.3	1	7KZ0	0.000	
23	 C20	19.537	36.297	14.523	C.2	1	7KZ0	0.000	
24	 C21	19.873	36.031	15.856	C.2	1	7KZ0	0.000	
25	   N	18.305	35.126	18.927	N.pl3	1	7KZ0	0.000	
26	  C1	14.567	34.587	19.238	C.3	1	7KZ0	0.000	
27	  C2	13.687	34.198	20.427	C.3	1	7KZ0	0.000	
28	  C3	12.226	34.120	19.977	C.3	1	7KZ0	0.000	
29	 C22	11.347	33.731	21.167	C.3	1	7KZ0	0.000	
@<TRIPOS>BOND
1 1 2 1
2 2 25 1
3 17 18 1
4 3 16 2
5 16 24 1
6 23 24 2
7 19 23 1
8 3 25 1
9 18 19 1
10 3 4 1
11 14 24 1
12 19 20 2
13 4 5 2
14 5 14 1
15 14 15 2
16 20 21 1
17 15 20 1
18 5 7 1
19 21 22 1
20 6 13 1
21 11 13 1
22 6 7 1
23 6 8 1
24 11 12 1
25 8 9 1
26 9 12 1
27 10 12 1
28 1 26 1
29 26 27 1
30 27 28 1
31 28 29 1
@<TRIPOS>SUBSTRUCTURE
1	7KZ0	1	GROUP	1 ****	7KZ
