# created with PyMOL 2.5.0
@<TRIPOS>MOLECULE
5TTF
24 26 1                 
SMALL
USER_CHARGES
@<TRIPOS>ATOM
1	   N	18.171	34.926	18.795	N.pl3	1	7KZ1506	0.000	
2	   O	22.730	37.263	13.154	O.3	1	7KZ1506	0.000	
3	  N1	20.400	35.209	18.409	N.2	1	7KZ1506	0.000	
4	  O1	20.296	37.138	12.354	O.3	1	7KZ1506	0.000	
5	  N2	22.637	35.580	18.170	N.pl3	1	7KZ1506	0.000	
6	  N3	25.287	35.015	21.418	N.3	1	7KZ1506	0.000	
7	  C4	16.001	35.546	19.765	C.3	1	7KZ1506	0.000	
8	  N4	18.801	35.507	16.645	N.2	1	7KZ1506	0.000	
9	  C5	16.728	34.862	18.622	C.3	1	7KZ1506	0.000	
10	  C6	19.154	35.202	17.912	C.2	1	7KZ1506	0.000	
11	  C7	21.404	35.578	17.627	C.2	1	7KZ1506	0.000	
12	  C8	23.107	35.236	19.506	C.3	1	7KZ1506	0.000	
13	  C9	23.696	36.451	20.198	C.3	1	7KZ1506	0.000	
14	 C10	24.275	36.059	21.557	C.3	1	7KZ1506	0.000	
15	 C12	24.684	33.822	20.823	C.3	1	7KZ1506	0.000	
16	 C13	24.132	34.119	19.432	C.3	1	7KZ1506	0.000	
17	 C14	21.171	35.961	16.255	C.2	1	7KZ1506	0.000	
18	 C15	22.167	36.403	15.352	C.2	1	7KZ1506	0.000	
19	 C16	21.845	36.788	14.086	C.2	1	7KZ1506	0.000	
20	 C17	24.071	37.563	13.553	C.3	1	7KZ1506	0.000	
21	 C18	20.498	36.716	13.644	C.2	1	7KZ1506	0.000	
22	 C19	18.979	37.045	11.813	C.3	1	7KZ1506	0.000	
23	 C20	19.518	36.271	14.489	C.2	1	7KZ1506	0.000	
24	 C21	19.827	35.897	15.817	C.2	1	7KZ1506	0.000	
@<TRIPOS>BOND
1 1 9 1
2 1 10 1
3 2 19 1
4 2 20 1
5 3 10 ar
6 3 11 ar
7 4 21 1
8 4 22 1
9 5 11 1
10 5 12 1
11 6 14 1
12 6 15 1
13 7 9 1
14 8 10 ar
15 8 24 ar
16 11 17 ar
17 12 13 1
18 12 16 1
19 13 14 1
20 15 16 1
21 17 18 ar
22 17 24 ar
23 18 19 ar
24 19 21 ar
25 21 23 ar
26 23 24 ar
@<TRIPOS>SUBSTRUCTURE
1	7KZ1506	1	GROUP	1 C	7KZ
