@<TRIPOS>MOLECULE
7KZ.****
66 68 1 0 0 
SMALL
USER_CHARGES


@<TRIPOS>ATOM
  1 C4      -4.3730    -3.6040    18.9360 C.3   1 Q7KZ0  -0.1600 
  2 H41     -4.5306    -4.3122    19.7495 H     1 Q7KZ0   0.0800 
  3 H42     -4.7214    -2.6172    19.2408 H     1 Q7KZ0   0.0800 
  4 C5      -5.1540    -4.0620    17.7030 C.3   1 Q7KZ0   0.2091 
  5 H51     -4.8062    -5.0492    17.3988 H     1 Q7KZ0   0.0800 
  6 H52     -4.9957    -3.3543    16.8892 H     1 Q7KZ0   0.0800 
  7 C6      -7.4920    -4.5170    17.0580 C.ar  1 Q7KZ0   0.7710 
  8 N1      -8.7810    -4.5660    17.3800 N.ar  1 Q7KZ0  -0.6200 
  9 C7      -9.7000    -4.9290    16.4970 C.ar  1 Q7KZ0   0.4100 
 10 C8     -11.4500    -4.6190    18.2030 C.3   1 Q7KZ0   0.2891 
 11 H8     -10.6842    -4.9431    18.9077 H     1 Q7KZ0   0.0800 
 12 N2     -11.0350    -4.9740    16.8440 N.pl3 1 Q7KZ0  -0.8691 
 13 H2     -11.7255    -5.2516    16.1611 H     1 Q7KZ0   0.4000 
 14 C9     -12.7780    -5.3080    18.5300 C.3   1 Q7KZ0  -0.1600 
 15 H91    -12.6439    -6.3893    18.5012 H     1 Q7KZ0   0.0800 
 16 H92    -13.5300    -5.0155    17.7971 H     1 Q7KZ0   0.0800 
 17 C10    -13.2360    -4.8870    19.9280 C.3   1 Q7KZ0   0.3430 
 18 H101   -12.4900    -5.1920    20.6618 H     1 Q7KZ0   0.0800 
 19 H102   -14.1882    -5.3652    20.1576 H     1 Q7KZ0   0.0800 
 20 C11    -13.9700    -3.0000    21.2560 C.3   1 Q7KZ0   0.2630 
 21 H111   -14.9111    -3.5228    21.4263 H     1 Q7KZ0   0.0800 
 22 H112   -14.1502    -1.9252    21.2340 H     1 Q7KZ0   0.0800 
 23 H113   -13.2730    -3.2351    22.0604 H     1 Q7KZ0   0.0800 
 24 C12    -12.1270    -2.7430    19.7070 C.3   1 Q7KZ0   0.3430 
 25 H121   -11.3861    -3.0561    20.4426 H     1 Q7KZ0   0.0800 
 26 H122   -12.2738    -1.6651    19.7754 H     1 Q7KZ0   0.0800 
 27 N3     -13.3980    -3.4270    19.9720 N.4   1 Q7KZ0  -0.9590 
 28 H3     -14.0445    -3.1663    19.2412 H     1 Q7KZ0   0.4500 
 29 C13    -11.6350    -3.1020    18.3040 C.3   1 Q7KZ0  -0.1600 
 30 H131   -12.3682    -2.7751    17.5667 H     1 Q7KZ0   0.0800 
 31 H132   -10.6831    -2.6060    18.1144 H     1 Q7KZ0   0.0800 
 32 C14     -9.2800    -5.2680    15.1880 C.ar  1 Q7KZ0   0.0000 
 33 C15    -10.1890    -5.6610    14.1980 C.ar  1 Q7KZ0  -0.1500 
 34 H15    -11.2445    -5.7131    14.4207 H     1 Q7KZ0   0.1500 
 35 N4      -7.0440    -4.8230    15.8560 N.ar  1 Q7KZ0  -0.1790 
 36 H4      -6.0543    -4.7720    15.6610 H     1 Q7KZ0   0.4570 
 37 C19     -6.5360    -6.1540    11.1520 C.3   1 Q7KZ0   0.0400 
 38 H191    -6.3305    -6.4365    10.1195 H     1 Q7KZ0   0.0800 
 39 H192    -6.0088    -6.8298    11.8254 H     1 Q7KZ0   0.0800 
 40 H193    -6.1968    -5.1324    11.3235 H     1 Q7KZ0   0.0800 
 41 O1      -7.9420    -6.2370    11.3980 O.3   1 Q7KZ0  -0.3625 
 42 C18     -8.3690    -5.9150    12.6470 C.ar  1 Q7KZ0   0.0825 
 43 C16     -9.7350    -5.9780    12.9500 C.ar  1 Q7KZ0   0.0825 
 44 O      -10.6200    -6.3600    11.9890 O.3   1 Q7KZ0  -0.3625 
 45 C17    -11.9990    -6.4040    12.3590 C.3   1 Q7KZ0   0.0400 
 46 H171   -12.5947    -6.7227    11.5036 H     1 Q7KZ0   0.0800 
 47 H172   -12.3216    -5.4127    12.6773 H     1 Q7KZ0   0.0800 
 48 H173   -12.1330    -7.1102    13.1784 H     1 Q7KZ0   0.0800 
 49 C20     -7.4540    -5.5330    13.6040 C.ar  1 Q7KZ0  -0.1500 
 50 H20     -6.4021    -5.4893    13.3631 H     1 Q7KZ0   0.1500 
 51 C21     -7.8960    -5.2020    14.8900 C.ar  1 Q7KZ0   0.3610 
 52 N       -6.5810    -4.1250    18.0240 N.pl3 1 Q7KZ0  -0.8691 
 53 H       -6.9011    -3.8823    18.9507 H     1 Q7KZ0   0.4000 
 54 C1      -2.8820    -3.5370    18.6000 C.3   1 Q7KZ0  -0.1600 
 55 H11     -2.7244    -2.8288    17.7865 H     1 Q7KZ0   0.0800 
 56 H12     -2.5336    -4.5238    18.2952 H     1 Q7KZ0   0.0800 
 57 C2      -2.1010    -3.0790    19.8330 C.3   1 Q7KZ0  -0.1600 
 58 H21     -2.2587    -3.7871    20.6465 H     1 Q7KZ0   0.0800 
 59 H22     -2.4494    -2.0921    20.1377 H     1 Q7KZ0   0.0800 
 60 C3      -0.6090    -3.0120    19.4970 C.3   1 Q7KZ0  -0.1600 
 61 H31     -0.4511    -2.3037    18.6837 H     1 Q7KZ0   0.0800 
 62 H32     -0.2604    -3.9988    19.1923 H     1 Q7KZ0   0.0800 
 63 C22      0.1710    -2.5540    20.7310 C.3   1 Q7KZ0  -0.2400 
 64 H221    -0.1777    -1.5672    21.0356 H     1 Q7KZ0   0.0800 
 65 H222     1.2334    -2.5062    20.4922 H     1 Q7KZ0   0.0800 
 66 H223     0.0129    -3.2623    21.5443 H     1 Q7KZ0   0.0800 
@<TRIPOS>BOND
  1   1   2  1   
  2   1   3  1   
  3   1   4  1   
  4   1  54  1   
  5   4   5  1   
  6   4   6  1   
  7   4  52  1   
  8   7   8  ar  
  9   7  35  ar  
 10   7  52  1   
 11   8   9  ar  
 12   9  12  1   
 13   9  32  ar  
 14  10  11  1   
 15  10  12  1   
 16  10  14  1   
 17  10  29  1   
 18  12  13  1   
 19  14  15  1   
 20  14  16  1   
 21  14  17  1   
 22  17  18  1   
 23  17  19  1   
 24  17  27  1   
 25  20  21  1   
 26  20  22  1   
 27  20  23  1   
 28  20  27  1   
 29  24  25  1   
 30  24  26  1   
 31  24  27  1   
 32  24  29  1   
 33  27  28  1   
 34  29  30  1   
 35  29  31  1   
 36  32  33  ar  
 37  32  51  ar  
 38  33  34  1   
 39  33  43  ar  
 40  35  36  1   
 41  35  51  ar  
 42  37  38  1   
 43  37  39  1   
 44  37  40  1   
 45  37  41  1   
 46  41  42  1   
 47  42  43  ar  
 48  42  49  ar  
 49  43  44  1   
 50  44  45  1   
 51  45  46  1   
 52  45  47  1   
 53  45  48  1   
 54  49  50  1   
 55  49  51  ar  
 56  52  53  1   
 57  54  55  1   
 58  54  56  1   
 59  54  57  1   
 60  57  58  1   
 61  57  59  1   
 62  57  60  1   
 63  60  61  1   
 64  60  62  1   
 65  60  63  1   
 66  63  64  1   
 67  63  65  1   
 68  63  66  1   
@<TRIPOS>SUBSTRUCTURE
  1 Q7KZ0   8 GROUP 4 **** **** 0

# MOE 2022.02 (io_trps.svl 2020.11)
