# created with PyMOL 2.5.0
@<TRIPOS>MOLECULE
5TTF
24 26 1                 
SMALL
USER_CHARGES
@<TRIPOS>ATOM
1	   N	-6.552	-3.767	17.969	N.pl3	1	7KZ1506	0.000	
2	   O	-10.397	-6.586	12.026	O.3	1	7KZ1506	0.000	
3	  N1	-8.719	-4.158	17.360	N.2	1	7KZ1506	0.000	
4	  O1	-7.866	-6.697	11.605	O.3	1	7KZ1506	0.000	
5	  N2	-10.913	-4.491	16.854	N.pl3	1	7KZ1506	0.000	
6	  N3	-13.639	-4.230	20.028	N.3	1	7KZ1506	0.000	
7	  C4	-4.460	-4.847	18.703	C.3	1	7KZ1506	0.000	
8	  N4	-6.909	-4.679	15.875	N.2	1	7KZ1506	0.000	
9	  C5	-5.099	-3.729	17.909	C.3	1	7KZ1506	0.000	
10	  C6	-7.419	-4.225	17.041	C.2	1	7KZ1506	0.000	
11	  C7	-9.625	-4.569	16.477	C.2	1	7KZ1506	0.000	
12	  C8	-11.445	-4.052	18.136	C.3	1	7KZ1506	0.000	
13	  C9	-11.669	-5.282	19.003	C.3	1	7KZ1506	0.000	
14	 C10	-12.373	-4.903	20.297	C.3	1	7KZ1506	0.000	
15	 C12	-13.384	-2.990	19.300	C.3	1	7KZ1506	0.000	
16	 C13	-12.735	-3.272	17.950	C.3	1	7KZ1506	0.000	
17	 C14	-9.223	-5.063	15.185	C.2	1	7KZ1506	0.000	
18	 C15	-10.100	-5.545	14.191	C.2	1	7KZ1506	0.000	
19	 C16	-9.622	-6.057	13.023	C.2	1	7KZ1506	0.000	
20	 C17	-11.778	-6.842	12.297	C.3	1	7KZ1506	0.000	
21	 C18	-8.224	-6.101	12.784	C.2	1	7KZ1506	0.000	
22	 C19	-6.591	-6.384	11.040	C.3	1	7KZ1506	0.000	
23	 C20	-7.351	-5.627	13.722	C.2	1	7KZ1506	0.000	
24	 C21	-7.826	-5.100	14.944	C.2	1	7KZ1506	0.000	
@<TRIPOS>BOND
1 1 9 1
2 1 10 1
3 2 19 1
4 2 20 1
5 3 10 ar
6 3 11 ar
7 4 21 1
8 4 22 1
9 5 11 1
10 5 12 1
11 6 14 1
12 6 15 1
13 7 9 1
14 8 10 ar
15 8 24 ar
16 11 17 ar
17 12 13 1
18 12 16 1
19 13 14 1
20 15 16 1
21 17 18 ar
22 17 24 ar
23 18 19 ar
24 19 21 ar
25 21 23 ar
26 23 24 ar
@<TRIPOS>SUBSTRUCTURE
1	7KZ1506	1	GROUP	1 A	7KZ
