# created with PyMOL 2.4.0
@<TRIPOS>MOLECULE
temp
50 52 1                 
SMALL
USER_CHARGES
@<TRIPOS>ATOM
1	   N	-15.031	-3.735	0.043	N.4	1	SAM1	0.000	
2	  CA	-14.733	-2.656	0.983	C.3	1	SAM1	0.000	
3	   C	-15.594	-1.466	0.666	C.2	1	SAM1	0.000	
4	   O	-16.475	-1.528	-0.244	O.co2	1	SAM1	0.000	
5	  CB	-13.238	-2.322	0.968	C.3	1	SAM1	0.000	
6	  CG	-12.394	-3.159	1.934	C.3	1	SAM1	0.000	
7	  SD	-12.677	-2.872	3.579	S.3	1	SAM1	0.000	
8	  CE	-11.194	-2.567	4.233	C.3	1	SAM1	0.000	
9	 C5'	-13.105	-4.305	4.348	C.3	1	SAM1	0.000	
10	 C4'	-14.509	-4.821	4.138	C.3	1	SAM1	0.000	
11	 O4'	-14.736	-5.243	2.784	O.3	1	SAM1	0.000	
12	 C3'	-14.807	-6.070	4.967	C.3	1	SAM1	0.000	
13	 O3'	-15.172	-5.794	6.321	O.3	1	SAM1	0.000	
14	 C2'	-15.942	-6.685	4.168	C.3	1	SAM1	0.000	
15	 O2'	-17.152	-5.959	4.310	O.3	1	SAM1	0.000	
16	 C1'	-15.496	-6.461	2.739	C.3	1	SAM1	0.000	
17	 OXT	-15.390	-0.439	1.342	O.co2	1	SAM1	0.000	
18	  N1	-15.173	-11.527	1.601	N.2	1	SAM1	0.000	
19	  C2	-16.255	-10.789	1.970	C.2	1	SAM1	0.000	
20	  N3	-16.198	-9.465	2.233	N.2	1	SAM1	0.000	
21	  C4	-15.003	-8.830	2.137	C.2	1	SAM1	0.000	
22	  C5	-13.791	-9.566	1.745	C.2	1	SAM1	0.000	
23	  C6	-13.928	-11.013	1.459	C.2	1	SAM1	0.000	
24	  N6	-12.866	-11.766	1.076	N.pl3	1	SAM1	0.000	
25	  N7	-12.775	-8.686	1.720	N.2	1	SAM1	0.000	
26	  C8	-13.281	-7.493	2.092	C.2	1	SAM1	0.000	
27	  N9	-14.616	-7.575	2.321	N.2	1	SAM1	0.000	
28	  HA	-14.967	-2.976	1.998	 H	1	SAM1	0.000	
29	 HB1	-13.120	-1.272	1.235	 H	1	SAM1	0.000	
30	 HB2	-12.862	-2.485	-0.042	 H	1	SAM1	0.000	
31	 HG1	-11.344	-2.949	1.732	 H	1	SAM1	0.000	
32	 HG2	-12.599	-4.211	1.736	 H	1	SAM1	0.000	
33	 HE1	-10.794	-1.645	3.812	 H	1	SAM1	0.000	
34	 HE2	-10.520	-3.393	4.006	 H	1	SAM1	0.000	
35	 HE3	-11.288	-2.462	5.314	 H	1	SAM1	0.000	
36	  H1	-14.812	-3.434	-0.896	 H	1	SAM1	0.000	
37	  H2	-16.011	-3.971	0.101	 H	1	SAM1	0.000	
38	  H2	-17.209	-11.288	2.057	 H	1	SAM1	0.000	
39	  H3	-14.475	-4.546	0.274	 H	1	SAM1	0.000	
40	  H8	-12.699	-6.589	2.194	 H	1	SAM1	0.000	
41	 H1'	-16.331	-6.408	2.041	 H	1	SAM1	0.000	
42	 H2'	-16.125	-7.715	4.475	 H	1	SAM1	0.000	
43	 H2'	-17.410	-6.002	5.234	 H	1	SAM1	0.000	
44	 H3'	-13.941	-6.719	5.097	 H	1	SAM1	0.000	
45	 H3'	-15.374	-6.632	6.744	 H	1	SAM1	0.000	
46	 H4'	-15.140	-3.979	4.424	 H	1	SAM1	0.000	
47	 H61	-11.955	-11.342	0.980	 H	1	SAM1	0.000	
48	 H62	-12.987	-12.751	0.887	 H	1	SAM1	0.000	
49	H5'1	-12.971	-4.153	5.419	 H	1	SAM1	0.000	
50	H5'2	-12.419	-5.078	4.002	 H	1	SAM1	0.000	
@<TRIPOS>BOND
1 1 2 1
2 1 36 1
3 1 37 1
4 1 39 1
5 2 3 1
6 2 5 1
7 2 28 1
8 3 4 ar
9 3 17 ar
10 5 6 1
11 5 29 1
12 5 30 1
13 6 7 1
14 6 31 1
15 6 32 1
16 7 8 1
17 7 9 1
18 8 33 1
19 8 34 1
20 8 35 1
21 9 10 1
22 9 49 1
23 9 50 1
24 10 11 1
25 10 12 1
26 10 46 1
27 11 16 1
28 12 13 1
29 12 14 1
30 12 44 1
31 13 45 1
32 14 15 1
33 14 16 1
34 14 42 1
35 15 43 1
36 16 27 1
37 16 41 1
38 18 19 ar
39 18 23 ar
40 19 20 ar
41 19 38 1
42 20 21 ar
43 21 22 ar
44 21 27 ar
45 22 23 ar
46 22 25 ar
47 23 24 1
48 24 47 1
49 24 48 1
50 25 26 ar
51 26 27 ar
52 26 40 1
@<TRIPOS>SUBSTRUCTURE
1	SAM1	1	GROUP	1 A	SAM
