# created with PyMOL 2.4.0
@<TRIPOS>MOLECULE
temp
50 52 1                 
SMALL
USER_CHARGES
@<TRIPOS>ATOM
1	   N	29.013	34.122	1.850	N.4	1	SAM1	0.000	
2	  CA	28.611	33.069	2.800	C.3	1	SAM1	0.000	
3	   C	29.476	31.866	2.570	C.2	1	SAM1	0.000	
4	   O	30.431	31.995	1.761	O.co2	1	SAM1	0.000	
5	  CB	27.116	32.765	2.610	C.3	1	SAM1	0.000	
6	  CG	26.256	33.718	3.444	C.3	1	SAM1	0.000	
7	  SD	26.315	33.557	5.125	S.3	1	SAM1	0.000	
8	  CE	24.763	33.135	5.522	C.3	1	SAM1	0.000	
9	 C5'	26.511	35.067	5.848	C.3	1	SAM1	0.000	
10	 C4'	27.940	35.572	5.897	C.3	1	SAM1	0.000	
11	 O4'	28.402	36.013	4.593	O.3	1	SAM1	0.000	
12	 C3'	28.073	36.788	6.806	C.3	1	SAM1	0.000	
13	 O3'	28.227	36.486	8.203	O.3	1	SAM1	0.000	
14	 C2'	29.272	37.500	6.205	C.3	1	SAM1	0.000	
15	 O2'	30.516	36.877	6.595	O.3	1	SAM1	0.000	
16	 C1'	29.071	37.279	4.718	C.3	1	SAM1	0.000	
17	 OXT	29.214	30.789	3.182	O.co2	1	SAM1	0.000	
18	  N1	28.434	42.363	3.552	N.2	1	SAM1	0.000	
19	  C2	29.413	41.753	4.267	C.2	1	SAM1	0.000	
20	  N3	29.457	40.429	4.496	N.2	1	SAM1	0.000	
21	  C4	28.471	39.633	4.000	C.2	1	SAM1	0.000	
22	  C5	27.373	40.215	3.218	C.2	1	SAM1	0.000	
23	  C6	27.392	41.684	3.001	C.2	1	SAM1	0.000	
24	  N6	26.417	42.294	2.294	N.pl3	1	SAM1	0.000	
25	  N7	26.544	39.201	2.864	N.2	1	SAM1	0.000	
26	  C8	27.072	38.076	3.393	C.2	1	SAM1	0.000	
27	  N9	28.232	38.319	4.054	N.2	1	SAM1	0.000	
28	  HA	28.749	33.389	3.833	 H	1	SAM1	0.000	
29	 HB1	26.918	31.740	2.922	 H	1	SAM1	0.000	
30	 HB2	26.859	32.881	1.557	 H	1	SAM1	0.000	
31	 HG1	25.220	33.574	3.139	 H	1	SAM1	0.000	
32	 HG2	26.568	34.734	3.203	 H	1	SAM1	0.000	
33	 HE1	24.532	32.159	5.096	 H	1	SAM1	0.000	
34	 HE2	24.072	33.878	5.124	 H	1	SAM1	0.000	
35	 HE3	24.665	33.091	6.607	 H	1	SAM1	0.000	
36	  H1	28.873	33.794	0.905	 H	1	SAM1	0.000	
37	  H2	29.988	34.346	1.988	 H	1	SAM1	0.000	
38	  H2	30.202	42.367	4.676	 H	1	SAM1	0.000	
39	  H3	28.453	34.948	2.006	 H	1	SAM1	0.000	
40	  H8	26.624	37.098	3.301	 H	1	SAM1	0.000	
41	 H1'	30.045	37.320	4.230	 H	1	SAM1	0.000	
42	 H2'	29.333	38.542	6.519	 H	1	SAM1	0.000	
43	 H2'	30.594	36.957	7.548	 H	1	SAM1	0.000	
44	 H3'	27.166	37.392	6.829	 H	1	SAM1	0.000	
45	 H3'	28.318	37.319	8.672	 H	1	SAM1	0.000	
46	 H4'	28.528	34.730	6.263	 H	1	SAM1	0.000	
47	 H61	25.660	41.750	1.904	 H	1	SAM1	0.000	
48	 H62	26.444	43.294	2.155	 H	1	SAM1	0.000	
49	H5'1	26.139	35.003	6.871	 H	1	SAM1	0.000	
50	H5'2	25.916	35.789	5.290	 H	1	SAM1	0.000	
@<TRIPOS>BOND
1 1 2 1
2 1 36 1
3 1 37 1
4 1 39 1
5 2 3 1
6 2 5 1
7 2 28 1
8 3 4 ar
9 3 17 ar
10 5 6 1
11 5 29 1
12 5 30 1
13 6 7 1
14 6 31 1
15 6 32 1
16 7 8 1
17 7 9 1
18 8 33 1
19 8 34 1
20 8 35 1
21 9 10 1
22 9 49 1
23 9 50 1
24 10 11 1
25 10 12 1
26 10 46 1
27 11 16 1
28 12 13 1
29 12 14 1
30 12 44 1
31 13 45 1
32 14 15 1
33 14 16 1
34 14 42 1
35 15 43 1
36 16 27 1
37 16 41 1
38 18 19 ar
39 18 23 ar
40 19 20 ar
41 19 38 1
42 20 21 ar
43 21 22 ar
44 21 27 ar
45 22 23 ar
46 22 25 ar
47 23 24 1
48 24 47 1
49 24 48 1
50 25 26 ar
51 26 27 ar
52 26 40 1
@<TRIPOS>SUBSTRUCTURE
1	SAM1	1	GROUP	1 C	SAM
