# created with PyMOL 2.5.0
@<TRIPOS>MOLECULE
5TTF
27 29 1                 
SMALL
USER_CHARGES
@<TRIPOS>ATOM
1	   N	29.013	34.122	1.850	N.3	1	SAM1505	0.000	
2	  CA	28.611	33.069	2.800	C.3	1	SAM1505	0.000	
3	   C	29.476	31.866	2.570	C.2	1	SAM1505	0.000	
4	   O	30.431	31.995	1.761	O.co2	1	SAM1505	0.000	
5	  CB	27.116	32.765	2.610	C.3	1	SAM1505	0.000	
6	  CG	26.256	33.718	3.444	C.3	1	SAM1505	0.000	
7	  SD	26.315	33.557	5.125	S.3	1	SAM1505	0.000	
8	  CE	24.763	33.135	5.522	C.3	1	SAM1505	0.000	
9	 C5'	26.511	35.067	5.848	C.3	1	SAM1505	0.000	
10	 C4'	27.940	35.572	5.897	C.3	1	SAM1505	0.000	
11	 O4'	28.402	36.013	4.593	O.3	1	SAM1505	0.000	
12	 C3'	28.073	36.788	6.806	C.3	1	SAM1505	0.000	
13	 O3'	28.227	36.486	8.203	O.3	1	SAM1505	0.000	
14	 C2'	29.272	37.500	6.205	C.3	1	SAM1505	0.000	
15	 O2'	30.516	36.877	6.595	O.3	1	SAM1505	0.000	
16	 C1'	29.071	37.279	4.718	C.3	1	SAM1505	0.000	
17	 OXT	29.214	30.789	3.182	O.co2	1	SAM1505	0.000	
18	  N1	28.434	42.363	3.552	N.2	1	SAM1505	0.000	
19	  C2	29.413	41.753	4.267	C.2	1	SAM1505	0.000	
20	  N3	29.457	40.429	4.496	N.2	1	SAM1505	0.000	
21	  C4	28.471	39.633	4.000	C.2	1	SAM1505	0.000	
22	  C5	27.373	40.215	3.218	C.2	1	SAM1505	0.000	
23	  C6	27.392	41.684	3.001	C.2	1	SAM1505	0.000	
24	  N6	26.417	42.294	2.294	N.pl3	1	SAM1505	0.000	
25	  N7	26.544	39.201	2.864	N.2	1	SAM1505	0.000	
26	  C8	27.072	38.076	3.393	C.2	1	SAM1505	0.000	
27	  N9	28.232	38.319	4.054	N.2	1	SAM1505	0.000	
@<TRIPOS>BOND
1 1 2 1
2 2 3 1
3 2 5 1
4 3 4 ar
5 3 17 ar
6 5 6 1
7 6 7 1
8 7 8 1
9 7 9 1
10 9 10 1
11 10 11 1
12 10 12 1
13 11 16 1
14 12 13 1
15 12 14 1
16 14 15 1
17 14 16 1
18 16 27 1
19 18 19 ar
20 18 23 ar
21 19 20 ar
22 20 21 ar
23 21 22 ar
24 21 27 ar
25 22 23 ar
26 22 25 ar
27 23 24 1
28 25 26 ar
29 26 27 ar
@<TRIPOS>SUBSTRUCTURE
1	SAM1505	1	GROUP	1 C	SAM
