@<TRIPOS>MOLECULE
5TTF.C
51 53 1 0 0 
SMALL
USER_CHARGES


@<TRIPOS>ATOM
  1 N       29.0130    34.1220     1.8500 N.4   1 SAM  -0.8530 
  2 H1      28.8733    33.7940     0.9050 H     1 SAM   0.4500 
  3 H2      29.9882    34.3456     1.9881 H     1 SAM   0.4500 
  4 H3      28.4529    34.9479     2.0060 H     1 SAM   0.4500 
  5 CA      28.6110    33.0690     2.8000 C.3   1 SAM   0.3170 
  6 HA      28.7487    33.3892     3.8328 H     1 SAM   0.0800 
  7 C       29.4760    31.8660     2.5700 C.2   1 SAM   0.9060 
  8 O       30.4310    31.9950     1.7610 O.co2 1 SAM  -0.9000 
  9 CB      27.1160    32.7650     2.6100 C.3   1 SAM  -0.1600 
 10 HB1     26.9176    31.7395     2.9217 H     1 SAM   0.0800 
 11 HB2     26.8590    32.8808     1.5571 H     1 SAM   0.0800 
 12 CG      26.2560    33.7180     3.4440 C.3   1 SAM  -0.1525 
 13 HG1     25.2196    33.5736     3.1388 H     1 SAM   0.0800 
 14 HG2     26.5676    34.7342     3.2026 H     1 SAM   0.0800 
 15 SD      26.3150    33.5570     5.1250 S.3   1 SAM   0.9775 
 16 CE      24.7630    33.1350     5.5220 C.3   1 SAM  -0.2325 
 17 HE1     24.5318    32.1586     5.0963 H     1 SAM   0.0800 
 18 HE2     24.0715    33.8778     5.1243 H     1 SAM   0.0800 
 19 HE3     24.6646    33.0910     6.6067 H     1 SAM   0.0800 
 20 C5'     26.5110    35.0670     5.8480 C.3   1 SAM  -0.1525 
 21 H5'1    26.1394    35.0033     6.8707 H     1 SAM   0.0800 
 22 H5'2    25.9158    35.7894     5.2895 H     1 SAM   0.0800 
 23 C4'     27.9400    35.5720     5.8970 C.3   1 SAM   0.2000 
 24 H4'     28.5280    34.7302     6.2627 H     1 SAM   0.0800 
 25 O4'     28.4020    36.0130     4.5930 O.3   1 SAM  -0.5600 
 26 C3'     28.0730    36.7880     6.8060 C.3   1 SAM   0.2000 
 27 H3'     27.1660    37.3920     6.8289 H     1 SAM   0.0800 
 28 O3'     28.2270    36.4860     8.2030 O.3   1 SAM  -0.6800 
 29 H3'     28.3178    37.3189     8.6717 H     1 SAM   0.4000 
 30 C2'     29.2720    37.5000     6.2050 C.3   1 SAM   0.2000 
 31 H2'     29.3330    38.5421     6.5186 H     1 SAM   0.0800 
 32 O2'     30.5160    36.8770     6.5950 O.3   1 SAM  -0.6800 
 33 H2'     30.5943    36.9570     7.5484 H     1 SAM   0.4000 
 34 C1'     29.0710    37.2790     4.7180 C.3   1 SAM   0.5691 
 35 H1'     30.0449    37.3204     4.2302 H     1 SAM   0.0800 
 36 OXT     29.2140    30.7890     3.1820 O.co2 1 SAM  -0.9000 
 37 N1      28.4340    42.3630     3.5520 N.2   1 SAM  -0.6610 
 38 C2      29.4130    41.7530     4.2670 C.2   1 SAM   0.6010 
 39 H2      30.2023    42.3666     4.6756 H     1 SAM   0.0600 
 40 N3      29.4570    40.4290     4.4960 N.2   1 SAM  -0.6610 
 41 C4      28.4710    39.6330     4.0000 C.2   1 SAM   0.5000 
 42 C5      27.3730    40.2150     3.2180 C.2   1 SAM   0.4500 
 43 C6      27.3920    41.6840     3.0010 C.2   1 SAM   0.6110 
 44 N6      26.4170    42.2940     2.2940 N.2   1 SAM  -0.2000 
 45 H62     26.4441    43.2940     2.1552 H     1 SAM   0.4000 
 46 H61     25.6605    41.7503     1.9039 H     1 SAM   0.4000 
 47 N7      26.5440    39.2010     2.8640 N.2   1 SAM  -0.6960 
 48 C8      27.0720    38.0760     3.3930 C.3   1 SAM   0.4551 
 49 H81     27.2677    37.3673     2.5883 H     1 SAM   0.0800 
 50 H82     26.3537    37.6447     4.0902 H     1 SAM   0.0800 
 51 N9      28.2320    38.3190     4.0540 N.pl3 1 SAM  -0.7882 
@<TRIPOS>BOND
  1   1   2  1   
  2   1   3  1   
  3   1   4  1   
  4   1   5  1   
  5   5   6  1   
  6   5   7  1   
  7   5   9  1   
  8   7   8  ar  
  9   7  36  ar  
 10   9  10  1   
 11   9  11  1   
 12   9  12  1   
 13  12  13  1   
 14  12  14  1   
 15  12  15  1   
 16  15  16  1   
 17  15  20  1   
 18  16  17  1   
 19  16  18  1   
 20  16  19  1   
 21  20  21  1   
 22  20  22  1   
 23  20  23  1   
 24  23  24  1   
 25  23  25  1   
 26  23  26  1   
 27  25  34  1   
 28  26  27  1   
 29  26  28  1   
 30  26  30  1   
 31  28  29  1   
 32  30  31  1   
 33  30  32  1   
 34  30  34  1   
 35  32  33  1   
 36  34  35  1   
 37  34  51  1   
 38  37  38  2   
 39  37  43  1   
 40  38  39  1   
 41  38  40  1   
 42  40  41  2   
 43  41  42  1   
 44  41  51  1   
 45  42  43  1   
 46  42  47  2   
 47  43  44  2   
 48  44  45  1   
 49  44  46  1   
 50  47  48  1   
 51  48  49  1   
 52  48  50  1   
 53  48  51  1   
@<TRIPOS>SUBSTRUCTURE
  1 SAM  25 GROUP 4 C **** 0

# MOE 2022.02 (io_trps.svl 2020.11)
