@<TRIPOS>MOLECULE
5TTF.A
51 53 1 0 0 
SMALL
USER_CHARGES


@<TRIPOS>ATOM
  1 N      -15.0310    -3.7350     0.0430 N.4   1 SAM  -0.8530 
  2 H1     -14.8124    -3.4335    -0.8958 H     1 SAM   0.4500 
  3 H2     -16.0113    -3.9710     0.1012 H     1 SAM   0.4500 
  4 H3     -14.4752    -4.5460     0.2742 H     1 SAM   0.4500 
  5 CA     -14.7330    -2.6560     0.9830 C.3   1 SAM   0.3170 
  6 HA     -14.9670    -2.9755     1.9985 H     1 SAM   0.0800 
  7 C      -15.5940    -1.4660     0.6660 C.2   1 SAM   0.9060 
  8 O      -16.4750    -1.5280    -0.2440 O.co2 1 SAM  -0.9000 
  9 CB     -13.2380    -2.3220     0.9680 C.3   1 SAM  -0.1600 
 10 HB1    -13.1205    -1.2716     1.2345 H     1 SAM   0.0800 
 11 HB2    -12.8622    -2.4847    -0.0422 H     1 SAM   0.0800 
 12 CG     -12.3940    -3.1590     1.9340 C.3   1 SAM  -0.1525 
 13 HG1    -11.3437    -2.9494     1.7316 H     1 SAM   0.0800 
 14 HG2    -12.5994    -4.2109     1.7357 H     1 SAM   0.0800 
 15 SD     -12.6770    -2.8720     3.5790 S.3   1 SAM   0.9775 
 16 CE     -11.1940    -2.5670     4.2330 C.3   1 SAM  -0.2325 
 17 HE1    -10.7937    -1.6449     3.8115 H     1 SAM   0.0800 
 18 HE2    -10.5199    -3.3929     4.0059 H     1 SAM   0.0800 
 19 HE3    -11.2882    -2.4616     5.3138 H     1 SAM   0.0800 
 20 C5'    -13.1050    -4.3050     4.3480 C.3   1 SAM  -0.1525 
 21 H5'1   -12.9707    -4.1527     5.4189 H     1 SAM   0.0800 
 22 H5'2   -12.4187    -5.0779     4.0020 H     1 SAM   0.0800 
 23 C4'    -14.5090    -4.8210     4.1380 C.3   1 SAM   0.2000 
 24 H4'    -15.1397    -3.9792     4.4239 H     1 SAM   0.0800 
 25 O4'    -14.7360    -5.2430     2.7840 O.3   1 SAM  -0.5600 
 26 C3'    -14.8070    -6.0700     4.9670 C.3   1 SAM   0.2000 
 27 H3'    -13.9408    -6.7188     5.0971 H     1 SAM   0.0800 
 28 O3'    -15.1720    -5.7940     6.3210 O.3   1 SAM  -0.6800 
 29 H3'    -15.3743    -6.6319     6.7437 H     1 SAM   0.4000 
 30 C2'    -15.9420    -6.6850     4.1680 C.3   1 SAM   0.2000 
 31 H2'    -16.1248    -7.7147     4.4751 H     1 SAM   0.0800 
 32 O2'    -17.1520    -5.9590     4.3100 O.3   1 SAM  -0.6800 
 33 H2'    -17.4095    -6.0019     5.2338 H     1 SAM   0.4000 
 34 C1'    -15.4960    -6.4610     2.7390 C.3   1 SAM   0.5691 
 35 H1'    -16.3314    -6.4078     2.0408 H     1 SAM   0.0800 
 36 OXT    -15.3900    -0.4390     1.3420 O.co2 1 SAM  -0.9000 
 37 N1     -15.1730   -11.5270     1.6010 N.2   1 SAM  -0.6610 
 38 C2     -16.2550   -10.7890     1.9700 C.2   1 SAM   0.6010 
 39 H2     -17.2091   -11.2876     2.0572 H     1 SAM   0.0600 
 40 N3     -16.1980    -9.4650     2.2330 N.2   1 SAM  -0.6610 
 41 C4     -15.0030    -8.8300     2.1370 C.2   1 SAM   0.5000 
 42 C5     -13.7910    -9.5660     1.7450 C.2   1 SAM   0.4500 
 43 C6     -13.9280   -11.0130     1.4590 C.2   1 SAM   0.6110 
 44 N6     -12.8660   -11.7660     1.0760 N.2   1 SAM  -0.2000 
 45 H62    -12.9871   -12.7508     0.8871 H     1 SAM   0.4000 
 46 H61    -11.9545   -11.3417     0.9798 H     1 SAM   0.4000 
 47 N7     -12.7750    -8.6860     1.7200 N.2   1 SAM  -0.6960 
 48 C8     -13.2810    -7.4930     2.0920 C.3   1 SAM   0.4551 
 49 H81    -13.1004    -6.7675     1.2988 H     1 SAM   0.0800 
 50 H82    -12.7834    -7.1649     3.0046 H     1 SAM   0.0800 
 51 N9     -14.6160    -7.5750     2.3210 N.pl3 1 SAM  -0.7882 
@<TRIPOS>BOND
  1   1   2  1   
  2   1   3  1   
  3   1   4  1   
  4   1   5  1   
  5   5   6  1   
  6   5   7  1   
  7   5   9  1   
  8   7   8  ar  
  9   7  36  ar  
 10   9  10  1   
 11   9  11  1   
 12   9  12  1   
 13  12  13  1   
 14  12  14  1   
 15  12  15  1   
 16  15  16  1   
 17  15  20  1   
 18  16  17  1   
 19  16  18  1   
 20  16  19  1   
 21  20  21  1   
 22  20  22  1   
 23  20  23  1   
 24  23  24  1   
 25  23  25  1   
 26  23  26  1   
 27  25  34  1   
 28  26  27  1   
 29  26  28  1   
 30  26  30  1   
 31  28  29  1   
 32  30  31  1   
 33  30  32  1   
 34  30  34  1   
 35  32  33  1   
 36  34  35  1   
 37  34  51  1   
 38  37  38  2   
 39  37  43  1   
 40  38  39  1   
 41  38  40  1   
 42  40  41  2   
 43  41  42  1   
 44  41  51  1   
 45  42  43  1   
 46  42  47  2   
 47  43  44  2   
 48  44  45  1   
 49  44  46  1   
 50  47  48  1   
 51  48  49  1   
 52  48  50  1   
 53  48  51  1   
@<TRIPOS>SUBSTRUCTURE
  1 SAM  25 GROUP 4 A **** 0

# MOE 2022.02 (io_trps.svl 2020.11)
