# created with PyMOL 2.5.0
@<TRIPOS>MOLECULE
5TTF
27 29 1                 
SMALL
USER_CHARGES
@<TRIPOS>ATOM
1	   N	-15.031	-3.735	0.043	N.3	1	SAM1505	0.000	
2	  CA	-14.733	-2.656	0.983	C.3	1	SAM1505	0.000	
3	   C	-15.594	-1.466	0.666	C.2	1	SAM1505	0.000	
4	   O	-16.475	-1.528	-0.244	O.co2	1	SAM1505	0.000	
5	  CB	-13.238	-2.322	0.968	C.3	1	SAM1505	0.000	
6	  CG	-12.394	-3.159	1.934	C.3	1	SAM1505	0.000	
7	  SD	-12.677	-2.872	3.579	S.3	1	SAM1505	0.000	
8	  CE	-11.194	-2.567	4.233	C.3	1	SAM1505	0.000	
9	 C5'	-13.105	-4.305	4.348	C.3	1	SAM1505	0.000	
10	 C4'	-14.509	-4.821	4.138	C.3	1	SAM1505	0.000	
11	 O4'	-14.736	-5.243	2.784	O.3	1	SAM1505	0.000	
12	 C3'	-14.807	-6.070	4.967	C.3	1	SAM1505	0.000	
13	 O3'	-15.172	-5.794	6.321	O.3	1	SAM1505	0.000	
14	 C2'	-15.942	-6.685	4.168	C.3	1	SAM1505	0.000	
15	 O2'	-17.152	-5.959	4.310	O.3	1	SAM1505	0.000	
16	 C1'	-15.496	-6.461	2.739	C.3	1	SAM1505	0.000	
17	 OXT	-15.390	-0.439	1.342	O.co2	1	SAM1505	0.000	
18	  N1	-15.173	-11.527	1.601	N.2	1	SAM1505	0.000	
19	  C2	-16.255	-10.789	1.970	C.2	1	SAM1505	0.000	
20	  N3	-16.198	-9.465	2.233	N.2	1	SAM1505	0.000	
21	  C4	-15.003	-8.830	2.137	C.2	1	SAM1505	0.000	
22	  C5	-13.791	-9.566	1.745	C.2	1	SAM1505	0.000	
23	  C6	-13.928	-11.013	1.459	C.2	1	SAM1505	0.000	
24	  N6	-12.866	-11.766	1.076	N.pl3	1	SAM1505	0.000	
25	  N7	-12.775	-8.686	1.720	N.2	1	SAM1505	0.000	
26	  C8	-13.281	-7.493	2.092	C.2	1	SAM1505	0.000	
27	  N9	-14.616	-7.575	2.321	N.2	1	SAM1505	0.000	
@<TRIPOS>BOND
1 1 2 1
2 2 3 1
3 2 5 1
4 3 4 ar
5 3 17 ar
6 5 6 1
7 6 7 1
8 7 8 1
9 7 9 1
10 9 10 1
11 10 11 1
12 10 12 1
13 11 16 1
14 12 13 1
15 12 14 1
16 14 15 1
17 14 16 1
18 16 27 1
19 18 19 ar
20 18 23 ar
21 19 20 ar
22 20 21 ar
23 21 22 ar
24 21 27 ar
25 22 23 ar
26 22 25 ar
27 23 24 1
28 25 26 ar
29 26 27 ar
@<TRIPOS>SUBSTRUCTURE
1	SAM1505	1	GROUP	1 A	SAM
