# created with PyMOL 2.5.0
@<TRIPOS>MOLECULE
7M6B
27 29 1                 
SMALL
USER_CHARGES
@<TRIPOS>ATOM
1	   N	20.913	1.074	18.976	N.3	1	SAM301	0.000	
2	  CA	21.620	1.765	20.110	C.3	1	SAM301	0.000	
3	   C	22.515	0.745	20.854	C.2	1	SAM301	0.000	
4	   O	23.081	-0.260	20.311	O.co2	1	SAM301	0.000	
5	  CB	20.618	2.387	21.108	C.3	1	SAM301	0.000	
6	  CG	19.352	3.139	20.584	C.3	1	SAM301	0.000	
7	  SD	18.126	3.364	21.945	S.3	1	SAM301	0.000	
8	  CE	16.858	2.186	21.514	C.3	1	SAM301	0.000	
9	 C5'	17.330	4.931	21.523	C.3	1	SAM301	0.000	
10	 C4'	18.221	6.136	21.756	C.3	1	SAM301	0.000	
11	 O4'	17.536	7.291	21.233	O.3	1	SAM301	0.000	
12	 C3'	18.548	6.516	23.213	C.3	1	SAM301	0.000	
13	 O3'	19.951	6.509	23.449	O.3	1	SAM301	0.000	
14	 C2'	18.040	7.958	23.355	C.3	1	SAM301	0.000	
15	 O2'	18.904	8.772	24.107	O.3	1	SAM301	0.000	
16	 C1'	18.054	8.407	21.902	C.3	1	SAM301	0.000	
17	 OXT	22.711	0.855	22.090	O.co2	1	SAM301	0.000	
18	  N1	17.637	12.678	19.049	N.2	1	SAM301	0.000	
19	  C2	18.647	11.814	19.226	C.2	1	SAM301	0.000	
20	  N3	18.702	10.732	20.003	N.2	1	SAM301	0.000	
21	  C4	17.547	10.556	20.673	C.2	1	SAM301	0.000	
22	  C5	16.425	11.362	20.603	C.2	1	SAM301	0.000	
23	  C6	16.493	12.488	19.756	C.2	1	SAM301	0.000	
24	  N6	15.478	13.327	19.568	N.pl3	1	SAM301	0.000	
25	  N7	15.429	10.877	21.437	N.2	1	SAM301	0.000	
26	  C8	15.944	9.798	21.966	C.2	1	SAM301	0.000	
27	  N9	17.228	9.553	21.555	N.2	1	SAM301	0.000	
@<TRIPOS>BOND
1 1 2 1
2 2 3 1
3 2 5 1
4 3 4 ar
5 3 17 ar
6 5 6 1
7 6 7 1
8 7 8 1
9 7 9 1
10 9 10 1
11 10 11 1
12 10 12 1
13 11 16 1
14 12 13 1
15 12 14 1
16 14 15 1
17 14 16 1
18 16 27 1
19 18 19 ar
20 18 23 ar
21 19 20 ar
22 20 21 ar
23 21 22 ar
24 21 27 ar
25 22 23 ar
26 22 25 ar
27 23 24 1
28 25 26 ar
29 26 27 ar
@<TRIPOS>SUBSTRUCTURE
1	SAM301	1	GROUP	1 B	SAM
