# created with PyMOL 2.4.0
@<TRIPOS>MOLECULE
temp
50 52 1                 
SMALL
USER_CHARGES
@<TRIPOS>ATOM
1	   N	20.913	1.074	18.976	N.4	1	SAM1	0.000	
2	  CA	21.620	1.765	20.110	C.3	1	SAM1	0.000	
3	   C	22.515	0.745	20.854	C.2	1	SAM1	0.000	
4	   O	23.081	-0.260	20.311	O.co2	1	SAM1	0.000	
5	  CB	20.618	2.387	21.108	C.3	1	SAM1	0.000	
6	  CG	19.352	3.139	20.584	C.3	1	SAM1	0.000	
7	  SD	18.126	3.364	21.945	S.3	1	SAM1	0.000	
8	  CE	16.858	2.186	21.514	C.3	1	SAM1	0.000	
9	 C5'	17.330	4.931	21.523	C.3	1	SAM1	0.000	
10	 C4'	18.221	6.136	21.756	C.3	1	SAM1	0.000	
11	 O4'	17.536	7.291	21.233	O.3	1	SAM1	0.000	
12	 C3'	18.548	6.516	23.213	C.3	1	SAM1	0.000	
13	 O3'	19.951	6.509	23.449	O.3	1	SAM1	0.000	
14	 C2'	18.040	7.958	23.355	C.3	1	SAM1	0.000	
15	 O2'	18.904	8.772	24.107	O.3	1	SAM1	0.000	
16	 C1'	18.054	8.407	21.902	C.3	1	SAM1	0.000	
17	 OXT	22.711	0.855	22.090	O.co2	1	SAM1	0.000	
18	  N1	17.637	12.678	19.049	N.2	1	SAM1	0.000	
19	  C2	18.647	11.814	19.226	C.2	1	SAM1	0.000	
20	  N3	18.702	10.732	20.003	N.2	1	SAM1	0.000	
21	  C4	17.547	10.556	20.673	C.2	1	SAM1	0.000	
22	  C5	16.425	11.362	20.603	C.2	1	SAM1	0.000	
23	  C6	16.493	12.488	19.756	C.2	1	SAM1	0.000	
24	  N6	15.478	13.327	19.568	N.pl3	1	SAM1	0.000	
25	  N7	15.429	10.877	21.437	N.2	1	SAM1	0.000	
26	  C8	15.944	9.798	21.966	C.2	1	SAM1	0.000	
27	  N9	17.228	9.553	21.555	N.2	1	SAM1	0.000	
28	  HA	22.226	2.568	19.691	 H	1	SAM1	0.000	
29	 HB1	21.179	3.100	21.713	 H	1	SAM1	0.000	
30	 HB2	20.261	1.575	21.742	 H	1	SAM1	0.000	
31	 HG1	18.896	2.558	19.782	 H	1	SAM1	0.000	
32	 HG2	19.647	4.116	20.202	 H	1	SAM1	0.000	
33	 HE1	17.213	1.177	21.723	 H	1	SAM1	0.000	
34	 HE2	16.623	2.276	20.453	 H	1	SAM1	0.000	
35	 HE3	15.962	2.385	22.103	 H	1	SAM1	0.000	
36	  H1	20.344	0.324	19.341	 H	1	SAM1	0.000	
37	  H2	21.595	0.697	18.334	 H	1	SAM1	0.000	
38	  H2	19.542	12.024	18.659	 H	1	SAM1	0.000	
39	  H3	20.325	1.737	18.492	 H	1	SAM1	0.000	
40	  H8	15.411	9.163	22.658	 H	1	SAM1	0.000	
41	 H1'	19.063	8.731	21.647	 H	1	SAM1	0.000	
42	 H2'	17.081	8.023	23.870	 H	1	SAM1	0.000	
43	 H2'	18.938	8.414	24.997	 H	1	SAM1	0.000	
44	 H3'	18.096	5.814	23.914	 H	1	SAM1	0.000	
45	 H3'	20.094	6.782	24.358	 H	1	SAM1	0.000	
46	 H4'	19.162	5.856	21.282	 H	1	SAM1	0.000	
47	 H61	14.601	13.173	20.045	 H	1	SAM1	0.000	
48	 H62	15.585	14.118	18.949	 H	1	SAM1	0.000	
49	H5'1	16.434	5.040	22.134	 H	1	SAM1	0.000	
50	H5'2	17.051	4.905	20.470	 H	1	SAM1	0.000	
@<TRIPOS>BOND
1 1 2 1
2 1 36 1
3 1 37 1
4 1 39 1
5 2 3 1
6 2 5 1
7 2 28 1
8 3 4 ar
9 3 17 ar
10 5 6 1
11 5 29 1
12 5 30 1
13 6 7 1
14 6 31 1
15 6 32 1
16 7 8 1
17 7 9 1
18 8 33 1
19 8 34 1
20 8 35 1
21 9 10 1
22 9 49 1
23 9 50 1
24 10 11 1
25 10 12 1
26 10 46 1
27 11 16 1
28 12 13 1
29 12 14 1
30 12 44 1
31 13 45 1
32 14 15 1
33 14 16 1
34 14 42 1
35 15 43 1
36 16 27 1
37 16 41 1
38 18 19 ar
39 18 23 ar
40 19 20 ar
41 19 38 1
42 20 21 ar
43 21 22 ar
44 21 27 ar
45 22 23 ar
46 22 25 ar
47 23 24 1
48 24 47 1
49 24 48 1
50 25 26 ar
51 26 27 ar
52 26 40 1
@<TRIPOS>SUBSTRUCTURE
1	SAM1	1	GROUP	1 B	SAM
