@<TRIPOS>MOLECULE
7M6B.B
51 53 1 0 0 
SMALL
USER_CHARGES


@<TRIPOS>ATOM
  1 N       20.9130     1.0740    18.9760 N.4   1 SAM  -0.8530 
  2 H1      20.3438     0.3239    19.3413 H     1 SAM   0.4500 
  3 H2      21.5952     0.6968    18.3338 H     1 SAM   0.4500 
  4 H3      20.3253     1.7373    18.4915 H     1 SAM   0.4500 
  5 CA      21.6200     1.7650    20.1100 C.3   1 SAM   0.3170 
  6 HA      22.2262     2.5684    19.6914 H     1 SAM   0.0800 
  7 C       22.5150     0.7450    20.8540 C.2   1 SAM   0.9060 
  8 O       23.0810    -0.2600    20.3110 O.co2 1 SAM  -0.9000 
  9 CB      20.6180     2.3870    21.1080 C.3   1 SAM  -0.1600 
 10 HB1     21.1787     3.0999    21.7126 H     1 SAM   0.0800 
 11 HB2     20.2610     1.5750    21.7415 H     1 SAM   0.0800 
 12 CG      19.3520     3.1390    20.5840 C.3   1 SAM  -0.1525 
 13 HG1     18.8958     2.5582    19.7823 H     1 SAM   0.0800 
 14 HG2     19.6475     4.1162    20.2019 H     1 SAM   0.0800 
 15 SD      18.1260     3.3640    21.9450 S.3   1 SAM   0.9775 
 16 CE      16.8580     2.1860    21.5140 C.3   1 SAM  -0.2325 
 17 HE1     17.2134     1.1769    21.7227 H     1 SAM   0.0800 
 18 HE2     16.6234     2.2764    20.4534 H     1 SAM   0.0800 
 19 HE3     15.9623     2.3847    22.1025 H     1 SAM   0.0800 
 20 C5'     17.3300     4.9310    21.5230 C.3   1 SAM  -0.1525 
 21 H5'1    16.4337     5.0397    22.1337 H     1 SAM   0.0800 
 22 H5'2    17.0509     4.9051    20.4696 H     1 SAM   0.0800 
 23 C4'     18.2210     6.1360    21.7560 C.3   1 SAM   0.2000 
 24 H4'     19.1615     5.8556    21.2816 H     1 SAM   0.0800 
 25 O4'     17.5360     7.2910    21.2330 O.3   1 SAM  -0.5600 
 26 C3'     18.5480     6.5160    23.2130 C.3   1 SAM   0.2000 
 27 H3'     18.0960     5.8145    23.9142 H     1 SAM   0.0800 
 28 O3'     19.9510     6.5090    23.4490 O.3   1 SAM  -0.6800 
 29 H3'     20.0938     6.7822    24.3582 H     1 SAM   0.4000 
 30 C2'     18.0400     7.9580    23.3550 C.3   1 SAM   0.2000 
 31 H2'     17.0814     8.0229    23.8697 H     1 SAM   0.0800 
 32 O2'     18.9040     8.7720    24.1070 O.3   1 SAM  -0.6800 
 33 H2'     19.7670     8.7449    23.6873 H     1 SAM   0.4000 
 34 C1'     18.0540     8.4070    21.9020 C.3   1 SAM   0.5691 
 35 H1'     19.0630     8.7312    21.6472 H     1 SAM   0.0800 
 36 OXT     22.7110     0.8550    22.0900 O.co2 1 SAM  -0.9000 
 37 N1      17.6370    12.6780    19.0490 N.2   1 SAM  -0.6610 
 38 C2      18.6470    11.8140    19.2260 C.2   1 SAM   0.6010 
 39 H2      19.5420    12.0242    18.6593 H     1 SAM   0.0600 
 40 N3      18.7020    10.7320    20.0030 N.2   1 SAM  -0.6610 
 41 C4      17.5470    10.5560    20.6730 C.2   1 SAM   0.5000 
 42 C5      16.4250    11.3620    20.6030 C.2   1 SAM   0.4500 
 43 C6      16.4930    12.4880    19.7560 C.2   1 SAM   0.6110 
 44 N6      15.4780    13.3270    19.5680 N.2   1 SAM  -0.2000 
 45 H62     15.5845    14.1178    18.9488 H     1 SAM   0.4000 
 46 H61     14.6008    13.1733    20.0445 H     1 SAM   0.4000 
 47 N7      15.4290    10.8770    21.4370 N.2   1 SAM  -0.6960 
 48 C8      15.9440     9.7980    21.9660 C.3   1 SAM   0.4551 
 49 H81     15.3232     8.9462    21.6881 H     1 SAM   0.0800 
 50 H82     15.9431     9.9099    23.0502 H     1 SAM   0.0800 
 51 N9      17.2280     9.5530    21.5550 N.pl3 1 SAM  -0.7882 
@<TRIPOS>BOND
  1   1   2  1   
  2   1   3  1   
  3   1   4  1   
  4   1   5  1   
  5   5   6  1   
  6   5   7  1   
  7   5   9  1   
  8   7   8  ar  
  9   7  36  ar  
 10   9  10  1   
 11   9  11  1   
 12   9  12  1   
 13  12  13  1   
 14  12  14  1   
 15  12  15  1   
 16  15  16  1   
 17  15  20  1   
 18  16  17  1   
 19  16  18  1   
 20  16  19  1   
 21  20  21  1   
 22  20  22  1   
 23  20  23  1   
 24  23  24  1   
 25  23  25  1   
 26  23  26  1   
 27  25  34  1   
 28  26  27  1   
 29  26  28  1   
 30  26  30  1   
 31  28  29  1   
 32  30  31  1   
 33  30  32  1   
 34  30  34  1   
 35  32  33  1   
 36  34  35  1   
 37  34  51  1   
 38  37  38  2   
 39  37  43  1   
 40  38  39  1   
 41  38  40  1   
 42  40  41  2   
 43  41  42  1   
 44  41  51  1   
 45  42  43  1   
 46  42  47  2   
 47  43  44  2   
 48  44  45  1   
 49  44  46  1   
 50  47  48  1   
 51  48  49  1   
 52  48  50  1   
 53  48  51  1   
@<TRIPOS>SUBSTRUCTURE
  1 SAM  23 GROUP 4 B **** 0

# MOE 2022.02 (io_trps.svl 2020.11)
