@<TRIPOS>MOLECULE
5XXJ.A
71 74 1 0 0 
SMALL
USER_CHARGES


@<TRIPOS>ATOM
  1 CAA     74.4170   134.3330   121.6810 C.ar  1 Q8HF  -0.1500 
  2 HAA     74.7027   134.5412   120.6605 H     1 Q8HF   0.1500 
  3 CAB     75.1920   133.4810   122.4600 C.ar  1 Q8HF  -0.1500 
  4 HAB     76.0554   132.9997   122.0250 H     1 Q8HF   0.1500 
  5 CAC     74.8710   133.2400   123.7910 C.ar  1 Q8HF  -0.1435 
  6 CAD     73.6590   133.7340   124.2720 C.ar  1 Q8HF  -0.1500 
  7 HAD     73.2946   133.4050   125.2340 H     1 Q8HF   0.1500 
  8 CAE     72.9100   134.6470   123.5290 C.ar  1 Q8HF   0.3610 
  9 CAF     73.2740   134.9170   122.2160 C.ar  1 Q8HF   0.0000 
 10 CAH     71.0340   136.0590   123.3340 C.ar  1 Q8HF   0.3610 
 11 CAI     71.3500   136.3390   122.0100 C.ar  1 Q8HF  -0.1500 
 12 HAI     70.7183   136.9891   121.4228 H     1 Q8HF   0.1500 
 13 CAJ     72.4890   135.7720   121.4510 C.ar  1 Q8HF   0.1770 
 14 CAK     69.8850   136.6140   123.9040 C.ar  1 Q8HF   0.0000 
 15 CAL     69.3880   136.1170   125.1010 C.ar  1 Q8HF  -0.1500 
 16 HAL     69.8930   135.3031   125.6000 H     1 Q8HF   0.1500 
 17 CAM     68.2360   136.6700   125.6580 C.ar  1 Q8HF  -0.1500 
 18 HAM     67.8630   136.2904   126.5977 H     1 Q8HF   0.1500 
 19 CAN     67.5580   137.7090   125.0160 C.ar  1 Q8HF  -0.1435 
 20 CAO     68.0570   138.2030   123.8090 C.ar  1 Q8HF  -0.1500 
 21 HAO     67.5602   139.0240   123.3135 H     1 Q8HF   0.1500 
 22 CAP     69.1980   137.6340   123.2450 C.ar  1 Q8HF  -0.1500 
 23 HAP     69.5538   137.9864   122.2881 H     1 Q8HF   0.1500 
 24 CAQ     66.4030   138.2510   125.6070 C.3   1 Q8HF   0.4235 
 25 CAR     66.8550   139.1800   126.7330 C.3   1 Q8HF  -0.2400 
 26 HAR1    67.4915   139.9644   126.3234 H     1 Q8HF   0.0800 
 27 HAR2    67.4141   138.6081   127.4735 H     1 Q8HF   0.0800 
 28 HAR3    65.9818   139.6302   127.2052 H     1 Q8HF   0.0800 
 29 CAS     65.5890   139.0560   124.5970 C.3   1 Q8HF  -0.2400 
 30 HAS1    66.2095   139.8492   124.1800 H     1 Q8HF   0.0800 
 31 HAS2    64.7241   139.4948   125.0946 H     1 Q8HF   0.0800 
 32 HAS3    65.2522   138.3987   123.7953 H     1 Q8HF   0.0800 
 33 CAV     75.6960   132.3380   124.4740 C.3   1 Q8HF   0.6135 
 34 HAV     75.5218   131.4966   123.8034 H     1 Q8HF   0.0800 
 35 CAY     74.0880   130.6820   125.3730 C.3   1 Q8HF   0.1100 
 36 HAY1    73.7711   130.4215   126.3828 H     1 Q8HF   0.0800 
 37 HAY2    73.3113   131.2749   124.8900 H     1 Q8HF   0.0800 
 38 CAZ     74.3480   129.3650   124.5400 C.3   1 Q8HF   0.2201 
 39 HAZ     73.3848   128.8553   124.5634 H     1 Q8HF   0.0800 
 40 NAG     71.7880   135.1910   124.0360 N.ar  1 Q8HF  -0.1790 
 41 HAG     71.5025   134.9406   124.9719 H     1 Q8HF   0.4570 
 42 NAW     75.3470   131.4600   125.4300 N.3   1 Q8HF  -0.8100 
 43 OAT     65.5590   137.2090   126.1430 O.3   1 Q8HF  -0.6800 
 44 HAT     65.2789   136.6564   125.4097 H     1 Q8HF   0.4000 
 45 OAX     76.8230   132.7950   124.5570 O.3   1 Q8HF  -0.6800 
 46 HAX     76.7962   133.5214   125.1841 H     1 Q8HF   0.4000 
 47 CBB     76.6420   129.2610   125.3740 C.3   1 Q8HF   0.1401 
 48 HBB1    77.3268   128.6570   125.9693 H     1 Q8HF   0.0800 
 49 HBB2    77.1099   129.5079   124.4210 H     1 Q8HF   0.0800 
 50 CBC     76.3010   130.5350   126.1220 C.3   1 Q8HF   0.1100 
 51 HBC1    75.8603   130.2539   127.0785 H     1 Q8HF   0.0800 
 52 HBC2    77.2290   131.0798   126.2957 H     1 Q8HF   0.0800 
 53 CBD     75.3780   127.1910   125.1420 C.2   1 Q8HF   0.7800 
 54 CBE     74.7490   129.6180   123.0800 C.3   1 Q8HF  -0.2400 
 55 HBE1    75.7120   130.1278   123.0508 H     1 Q8HF   0.0800 
 56 HBE2    73.9941   130.2395   122.5984 H     1 Q8HF   0.0800 
 57 HBE3    74.8256   128.6663   122.5541 H     1 Q8HF   0.0800 
 58 CBH     76.0270   125.0920   125.7100 C.3   1 Q8HF   0.1200 
 59 HBH1    76.4082   124.6222   126.6167 H     1 Q8HF   0.0800 
 60 HBH2    74.9397   125.0174   125.6917 H     1 Q8HF   0.0800 
 61 CBI     76.5890   124.3600   124.5050 C.3   1 Q8HF  -0.1600 
 62 HBI1    76.2441   124.8427   123.5906 H     1 Q8HF   0.0800 
 63 HBI2    76.2527   123.3232   124.5176 H     1 Q8HF   0.0800 
 64 CBJ     78.1040   124.4040   124.5630 C.3   1 Q8HF  -0.2400 
 65 HBJ1    78.5160   123.8801   123.7005 H     1 Q8HF   0.0800 
 66 HBJ2    78.4467   123.9220   125.4786 H     1 Q8HF   0.0800 
 67 HBJ3    78.4381   125.4415   124.5516 H     1 Q8HF   0.0800 
 68 NBA     75.4130   128.5220   125.1400 N.am  1 Q8HF  -0.6602 
 69 OBF     76.3960   126.4770   125.7160 O.3   1 Q8HF  -0.4300 
 70 OBG     74.3280   126.6350   124.8260 O.2   1 Q8HF  -0.5700 
 71 CL      72.7650   135.9960   120.4210 Cl    1 Q8HF  -0.1770 
@<TRIPOS>BOND
  1   1   2  1   
  2   1   3  ar  
  3   1   9  ar  
  4   3   4  1   
  5   3   5  ar  
  6   5   6  ar  
  7   5  33  1   
  8   6   7  1   
  9   6   8  ar  
 10   8   9  ar  
 11   8  40  ar  
 12   9  13  ar  
 13  10  11  ar  
 14  10  14  1   
 15  10  40  ar  
 16  11  12  1   
 17  11  13  ar  
 18  13  71  1   
 19  14  15  ar  
 20  14  22  ar  
 21  15  16  1   
 22  15  17  ar  
 23  17  18  1   
 24  17  19  ar  
 25  19  20  ar  
 26  19  24  1   
 27  20  21  1   
 28  20  22  ar  
 29  22  23  1   
 30  24  25  1   
 31  24  29  1   
 32  24  43  1   
 33  25  26  1   
 34  25  27  1   
 35  25  28  1   
 36  29  30  1   
 37  29  31  1   
 38  29  32  1   
 39  33  34  1   
 40  33  42  1   
 41  33  45  1   
 42  35  36  1   
 43  35  37  1   
 44  35  38  1   
 45  35  42  1   
 46  38  39  1   
 47  38  54  1   
 48  38  68  1   
 49  40  41  1   
 50  42  50  1   
 51  43  44  1   
 52  45  46  1   
 53  47  48  1   
 54  47  49  1   
 55  47  50  1   
 56  47  68  1   
 57  50  51  1   
 58  50  52  1   
 59  53  68  am  
 60  53  69  1   
 61  53  70  2   
 62  54  55  1   
 63  54  56  1   
 64  54  57  1   
 65  58  59  1   
 66  58  60  1   
 67  58  61  1   
 68  58  69  1   
 69  61  62  1   
 70  61  63  1   
 71  61  64  1   
 72  64  65  1   
 73  64  66  1   
 74  64  67  1   
@<TRIPOS>SUBSTRUCTURE
  1 Q8HF   6 GROUP 4 A **** 0

# MOE 2022.02 (io_trps.svl 2020.11)
