# created with PyMOL 2.5.0
@<TRIPOS>MOLECULE
5XXJ
35 38 1                 
SMALL
USER_CHARGES
@<TRIPOS>ATOM
1	 CAA	74.417	134.333	121.681	C.2	1	8HF504	0.000	
2	 CAB	75.192	133.481	122.460	C.2	1	8HF504	0.000	
3	 CAC	74.871	133.240	123.791	C.2	1	8HF504	0.000	
4	 CAD	73.659	133.734	124.272	C.2	1	8HF504	0.000	
5	 CAE	72.910	134.647	123.529	C.2	1	8HF504	0.000	
6	 CAF	73.274	134.917	122.216	C.2	1	8HF504	0.000	
7	 CAH	71.034	136.059	123.334	C.2	1	8HF504	0.000	
8	 CAI	71.350	136.339	122.010	C.2	1	8HF504	0.000	
9	 CAJ	72.489	135.772	121.451	C.2	1	8HF504	0.000	
10	 CAK	69.885	136.614	123.904	C.2	1	8HF504	0.000	
11	 CAL	69.388	136.117	125.101	C.2	1	8HF504	0.000	
12	 CAM	68.236	136.670	125.658	C.2	1	8HF504	0.000	
13	 CAN	67.558	137.709	125.016	C.2	1	8HF504	0.000	
14	 CAO	68.057	138.203	123.809	C.2	1	8HF504	0.000	
15	 CAP	69.198	137.634	123.245	C.2	1	8HF504	0.000	
16	 CAQ	66.403	138.251	125.607	C.3	1	8HF504	0.000	
17	 CAR	66.855	139.180	126.733	C.3	1	8HF504	0.000	
18	 CAS	65.589	139.056	124.597	C.3	1	8HF504	0.000	
19	 CAV	75.696	132.338	124.474	C.3	1	8HF504	0.000	
20	 CAY	74.088	130.682	125.373	C.3	1	8HF504	0.000	
21	 CAZ	74.348	129.365	124.540	C.3	1	8HF504	0.000	
22	 NAG	71.788	135.191	124.036	N.2	1	8HF504	0.000	
23	 NAW	75.347	131.460	125.430	N.3	1	8HF504	0.000	
24	 OAT	65.559	137.209	126.143	O.3	1	8HF504	0.000	
25	 OAX	76.823	132.795	124.557	O.3	1	8HF504	0.000	
26	 CBB	76.642	129.261	125.374	C.3	1	8HF504	0.000	
27	 CBC	76.301	130.535	126.122	C.3	1	8HF504	0.000	
28	 CBD	75.378	127.191	125.142	C.2	1	8HF504	0.000	
29	 CBE	74.749	129.618	123.080	C.3	1	8HF504	0.000	
30	 CBH	76.027	125.092	125.710	C.3	1	8HF504	0.000	
31	 CBI	76.589	124.360	124.505	C.3	1	8HF504	0.000	
32	 CBJ	78.104	124.404	124.563	C.3	1	8HF504	0.000	
33	 NBA	75.413	128.522	125.140	N.pl3	1	8HF504	0.000	
34	 OBF	76.396	126.477	125.716	O.3	1	8HF504	0.000	
35	 OBG	74.328	126.635	124.826	O.co2	1	8HF504	0.000	
@<TRIPOS>BOND
1 1 2 ar
2 1 6 ar
3 2 3 ar
4 3 4 ar
5 3 19 1
6 4 5 ar
7 5 6 ar
8 5 22 ar
9 6 9 ar
10 7 8 ar
11 7 10 1
12 7 22 ar
13 8 9 ar
14 10 11 ar
15 10 15 ar
16 11 12 ar
17 12 13 ar
18 13 14 ar
19 13 16 1
20 14 15 ar
21 16 17 1
22 16 18 1
23 16 24 1
24 19 23 1
25 19 25 1
26 20 21 1
27 20 23 1
28 21 29 1
29 21 33 1
30 23 27 1
31 26 27 1
32 26 33 1
33 28 33 1
34 28 34 1
35 28 35 2
36 30 31 1
37 30 34 1
38 31 32 1
@<TRIPOS>SUBSTRUCTURE
1	8HF504	1	GROUP	1 A	8HF
