# created with PyMOL 2.5.0
@<TRIPOS>MOLECULE
5XXJ
27 29 1                 
SMALL
USER_CHARGES
@<TRIPOS>ATOM
1	   N	80.891	118.271	131.128	N.3	1	SAM505	0.000	
2	  CA	81.013	118.344	129.679	C.3	1	SAM505	0.000	
3	   C	81.987	117.303	129.157	C.2	1	SAM505	0.000	
4	   O	82.405	116.416	129.916	O.co2	1	SAM505	0.000	
5	  CB	81.429	119.747	129.254	C.3	1	SAM505	0.000	
6	  CG	80.222	120.676	129.064	C.3	1	SAM505	0.000	
7	  SD	79.153	120.171	127.676	S.3	1	SAM505	0.000	
8	  CE	78.969	121.711	126.741	C.3	1	SAM505	0.000	
9	 C5'	77.514	120.124	128.446	C.3	1	SAM505	0.000	
10	 C4'	77.266	118.870	129.270	C.3	1	SAM505	0.000	
11	 O4'	77.976	118.967	130.496	O.3	1	SAM505	0.000	
12	 C3'	75.803	118.704	129.682	C.3	1	SAM505	0.000	
13	 O3'	74.996	118.064	128.713	O.3	1	SAM505	0.000	
14	 C2'	75.913	117.886	130.941	C.3	1	SAM505	0.000	
15	 O2'	76.304	116.559	130.635	O.3	1	SAM505	0.000	
16	 C1'	77.149	118.491	131.548	C.3	1	SAM505	0.000	
17	 OXT	82.347	117.327	127.977	O.co2	1	SAM505	0.000	
18	  N1	75.619	120.168	136.226	N.2	1	SAM505	0.000	
19	  C2	75.677	118.868	135.782	C.2	1	SAM505	0.000	
20	  N3	76.105	118.590	134.509	N.2	1	SAM505	0.000	
21	  C4	76.462	119.630	133.708	C.2	1	SAM505	0.000	
22	  C5	76.408	120.958	134.146	C.2	1	SAM505	0.000	
23	  C6	75.977	121.227	135.440	C.2	1	SAM505	0.000	
24	  N6	75.886	122.462	135.964	N.pl3	1	SAM505	0.000	
25	  N7	76.822	121.742	133.118	N.2	1	SAM505	0.000	
26	  C8	77.116	120.965	132.058	C.2	1	SAM505	0.000	
27	  N9	76.880	119.655	132.415	N.2	1	SAM505	0.000	
@<TRIPOS>BOND
1 1 2 1
2 2 3 1
3 2 5 1
4 3 4 ar
5 3 17 ar
6 5 6 1
7 6 7 1
8 7 8 1
9 7 9 1
10 9 10 1
11 10 11 1
12 10 12 1
13 11 16 1
14 12 13 1
15 12 14 1
16 14 15 1
17 14 16 1
18 16 27 1
19 18 19 ar
20 18 23 ar
21 19 20 ar
22 20 21 ar
23 21 22 ar
24 21 27 ar
25 22 23 ar
26 22 25 ar
27 23 24 1
28 25 26 ar
29 26 27 ar
@<TRIPOS>SUBSTRUCTURE
1	SAM505	1	GROUP	1 A	SAM
