# created with PyMOL 2.4.0
@<TRIPOS>MOLECULE
temp
50 52 1                 
SMALL
USER_CHARGES
@<TRIPOS>ATOM
1	   N	80.891	118.271	131.128	N.4	1	SAM1	0.000	
2	  CA	81.013	118.344	129.679	C.3	1	SAM1	0.000	
3	   C	81.987	117.303	129.157	C.2	1	SAM1	0.000	
4	   O	82.405	116.416	129.916	O.co2	1	SAM1	0.000	
5	  CB	81.429	119.747	129.254	C.3	1	SAM1	0.000	
6	  CG	80.222	120.676	129.064	C.3	1	SAM1	0.000	
7	  SD	79.153	120.171	127.676	S.3	1	SAM1	0.000	
8	  CE	78.969	121.711	126.741	C.3	1	SAM1	0.000	
9	 C5'	77.514	120.124	128.446	C.3	1	SAM1	0.000	
10	 C4'	77.266	118.870	129.270	C.3	1	SAM1	0.000	
11	 O4'	77.976	118.967	130.496	O.3	1	SAM1	0.000	
12	 C3'	75.803	118.704	129.682	C.3	1	SAM1	0.000	
13	 O3'	74.996	118.064	128.713	O.3	1	SAM1	0.000	
14	 C2'	75.913	117.886	130.941	C.3	1	SAM1	0.000	
15	 O2'	76.304	116.559	130.635	O.3	1	SAM1	0.000	
16	 C1'	77.149	118.491	131.548	C.3	1	SAM1	0.000	
17	 OXT	82.347	117.327	127.977	O.co2	1	SAM1	0.000	
18	  N1	75.619	120.168	136.226	N.2	1	SAM1	0.000	
19	  C2	75.677	118.868	135.782	C.2	1	SAM1	0.000	
20	  N3	76.105	118.590	134.509	N.2	1	SAM1	0.000	
21	  C4	76.462	119.630	133.708	C.2	1	SAM1	0.000	
22	  C5	76.408	120.958	134.146	C.2	1	SAM1	0.000	
23	  C6	75.977	121.227	135.440	C.2	1	SAM1	0.000	
24	  N6	75.886	122.462	135.964	N.pl3	1	SAM1	0.000	
25	  N7	76.822	121.742	133.118	N.2	1	SAM1	0.000	
26	  C8	77.116	120.965	132.058	C.2	1	SAM1	0.000	
27	  N9	76.880	119.655	132.415	N.2	1	SAM1	0.000	
28	  HA	80.038	118.127	129.242	 H	1	SAM1	0.000	
29	 HB1	81.974	119.682	128.312	 H	1	SAM1	0.000	
30	 HB2	82.079	120.168	130.021	 H	1	SAM1	0.000	
31	 HG1	80.586	121.686	128.874	 H	1	SAM1	0.000	
32	 HG2	79.630	120.670	129.979	 H	1	SAM1	0.000	
33	 HE1	79.888	121.915	126.192	 H	1	SAM1	0.000	
34	 HE2	78.767	122.532	127.429	 H	1	SAM1	0.000	
35	 HE3	78.141	121.613	126.039	 H	1	SAM1	0.000	
36	  H1	81.786	118.469	131.552	 H	1	SAM1	0.000	
37	  H2	80.591	117.344	131.394	 H	1	SAM1	0.000	
38	  H2	75.384	118.062	136.439	 H	1	SAM1	0.000	
39	  H3	80.212	118.949	131.443	 H	1	SAM1	0.000	
40	  H8	77.473	121.308	131.098	 H	1	SAM1	0.000	
41	 H1'	77.607	117.708	132.152	 H	1	SAM1	0.000	
42	 H2'	74.992	117.878	131.524	 H	1	SAM1	0.000	
43	 H2'	75.595	116.157	130.128	 H	1	SAM1	0.000	
44	 H3'	75.305	119.665	129.810	 H	1	SAM1	0.000	
45	 H3'	74.110	117.991	129.075	 H	1	SAM1	0.000	
46	 H4'	77.578	118.036	128.641	 H	1	SAM1	0.000	
47	 H61	76.139	123.266	135.408	 H	1	SAM1	0.000	
48	 H62	75.564	122.585	136.913	 H	1	SAM1	0.000	
49	H5'1	76.762	120.174	127.659	 H	1	SAM1	0.000	
50	H5'2	77.415	120.991	129.099	 H	1	SAM1	0.000	
@<TRIPOS>BOND
1 1 2 1
2 1 36 1
3 1 37 1
4 1 39 1
5 2 3 1
6 2 5 1
7 2 28 1
8 3 4 ar
9 3 17 ar
10 5 6 1
11 5 29 1
12 5 30 1
13 6 7 1
14 6 31 1
15 6 32 1
16 7 8 1
17 7 9 1
18 8 33 1
19 8 34 1
20 8 35 1
21 9 10 1
22 9 49 1
23 9 50 1
24 10 11 1
25 10 12 1
26 10 46 1
27 11 16 1
28 12 13 1
29 12 14 1
30 12 44 1
31 13 45 1
32 14 15 1
33 14 16 1
34 14 42 1
35 15 43 1
36 16 27 1
37 16 41 1
38 18 19 ar
39 18 23 ar
40 19 20 ar
41 19 38 1
42 20 21 ar
43 21 22 ar
44 21 27 ar
45 22 23 ar
46 22 25 ar
47 23 24 1
48 24 47 1
49 24 48 1
50 25 26 ar
51 26 27 ar
52 26 40 1
@<TRIPOS>SUBSTRUCTURE
1	SAM1	1	GROUP	1 A	SAM
