@<TRIPOS>MOLECULE
5XXJ.A
51 53 1 0 0 
SMALL
USER_CHARGES


@<TRIPOS>ATOM
  1 N       80.8910   118.2710   131.1280 N.4   1 SAM  -0.8530 
  2 H1      81.7861   118.4695   131.5516 H     1 SAM   0.4500 
  3 H2      80.5906   117.3442   131.3943 H     1 SAM   0.4500 
  4 H3      80.2116   118.9486   131.4432 H     1 SAM   0.4500 
  5 CA      81.0130   118.3440   129.6790 C.3   1 SAM   0.3170 
  6 HA      80.0383   118.1271   129.2420 H     1 SAM   0.0800 
  7 C       81.9870   117.3030   129.1570 C.2   1 SAM   0.9060 
  8 O       82.4050   116.4160   129.9160 O.co2 1 SAM  -0.9000 
  9 CB      81.4290   119.7470   129.2540 C.3   1 SAM  -0.1600 
 10 HB1     81.9736   119.6816   128.3121 H     1 SAM   0.0800 
 11 HB2     82.0790   120.1681   130.0210 H     1 SAM   0.0800 
 12 CG      80.2220   120.6760   129.0640 C.3   1 SAM  -0.1525 
 13 HG1     80.5862   121.6856   128.8736 H     1 SAM   0.0800 
 14 HG2     79.6303   120.6698   129.9794 H     1 SAM   0.0800 
 15 SD      79.1530   120.1710   127.6760 S.3   1 SAM   0.9775 
 16 CE      78.9690   121.7110   126.7410 C.3   1 SAM  -0.2325 
 17 HE1     79.8883   121.9147   126.1919 H     1 SAM   0.0800 
 18 HE2     78.7673   122.5319   127.4291 H     1 SAM   0.0800 
 19 HE3     78.1407   121.6133   126.0393 H     1 SAM   0.0800 
 20 C5'     77.5140   120.1240   128.4460 C.3   1 SAM  -0.1525 
 21 H5'1    76.7616   120.1739   127.6589 H     1 SAM   0.0800 
 22 H5'2    77.4147   120.9911   129.0990 H     1 SAM   0.0800 
 23 C4'     77.2660   118.8700   129.2700 C.3   1 SAM   0.2000 
 24 H4'     77.5784   118.0360   128.6415 H     1 SAM   0.0800 
 25 O4'     77.9760   118.9670   130.4960 O.3   1 SAM  -0.5600 
 26 C3'     75.8030   118.7040   129.6820 C.3   1 SAM   0.2000 
 27 H3'     75.3055   119.6653   129.8102 H     1 SAM   0.0800 
 28 O3'     74.9960   118.0640   128.7130 O.3   1 SAM  -0.6800 
 29 H3'     74.1100   117.9911   129.0754 H     1 SAM   0.4000 
 30 C2'     75.9130   117.8860   130.9410 C.3   1 SAM   0.2000 
 31 H2'     74.9921   117.8779   131.5240 H     1 SAM   0.0800 
 32 O2'     76.3040   116.5590   130.6350 O.3   1 SAM  -0.6800 
 33 H2'     75.5949   116.1571   130.1278 H     1 SAM   0.4000 
 34 C1'     77.1490   118.4910   131.5480 C.3   1 SAM   0.5691 
 35 H1'     77.6068   117.7079   132.1525 H     1 SAM   0.0800 
 36 OXT     82.3470   117.3270   127.9770 O.co2 1 SAM  -0.9000 
 37 N1      75.6190   120.1680   136.2260 N.2   1 SAM  -0.6610 
 38 C2      75.6770   118.8680   135.7820 C.2   1 SAM   0.6010 
 39 H2      75.3842   118.0621   136.4387 H     1 SAM   0.0600 
 40 N3      76.1050   118.5900   134.5090 N.2   1 SAM  -0.6610 
 41 C4      76.4620   119.6300   133.7080 C.2   1 SAM   0.5000 
 42 C5      76.4080   120.9580   134.1460 C.2   1 SAM   0.4500 
 43 C6      75.9770   121.2270   135.4400 C.2   1 SAM   0.6110 
 44 N6      75.8860   122.4620   135.9640 N.2   1 SAM  -0.2000 
 45 H62     75.5643   122.5853   136.9134 H     1 SAM   0.4000 
 46 H61     76.1394   123.2663   135.4082 H     1 SAM   0.4000 
 47 N7      76.8220   121.7420   133.1180 N.2   1 SAM  -0.6960 
 48 C8      77.1160   120.9650   132.0580 C.3   1 SAM   0.4551 
 49 H81     78.1637   121.0916   131.7852 H     1 SAM   0.0800 
 50 H82     76.4848   121.2379   131.2123 H     1 SAM   0.0800 
 51 N9      76.8800   119.6550   132.4150 N.pl3 1 SAM  -0.7882 
@<TRIPOS>BOND
  1   1   2  1   
  2   1   3  1   
  3   1   4  1   
  4   1   5  1   
  5   5   6  1   
  6   5   7  1   
  7   5   9  1   
  8   7   8  ar  
  9   7  36  ar  
 10   9  10  1   
 11   9  11  1   
 12   9  12  1   
 13  12  13  1   
 14  12  14  1   
 15  12  15  1   
 16  15  16  1   
 17  15  20  1   
 18  16  17  1   
 19  16  18  1   
 20  16  19  1   
 21  20  21  1   
 22  20  22  1   
 23  20  23  1   
 24  23  24  1   
 25  23  25  1   
 26  23  26  1   
 27  25  34  1   
 28  26  27  1   
 29  26  28  1   
 30  26  30  1   
 31  28  29  1   
 32  30  31  1   
 33  30  32  1   
 34  30  34  1   
 35  32  33  1   
 36  34  35  1   
 37  34  51  1   
 38  37  38  2   
 39  37  43  1   
 40  38  39  1   
 41  38  40  1   
 42  40  41  2   
 43  41  42  1   
 44  41  51  1   
 45  42  43  1   
 46  42  47  2   
 47  43  44  2   
 48  44  45  1   
 49  44  46  1   
 50  47  48  1   
 51  48  49  1   
 52  48  50  1   
 53  48  51  1   
@<TRIPOS>SUBSTRUCTURE
  1 SAM  25 GROUP 4 A **** 0

# MOE 2022.02 (io_trps.svl 2020.11)
