# created with PyMOL 2.5.0
@<TRIPOS>MOLECULE
1MSK
27 29 1                 
SMALL
USER_CHARGES
@<TRIPOS>ATOM
1	   N	10.328	21.137	14.002	N.3	1	SAM1301	0.000	
2	  CA	9.653	19.908	13.745	C.3	1	SAM1301	0.000	
3	   C	8.525	20.148	12.800	C.2	1	SAM1301	0.000	
4	   O	7.985	21.269	12.799	O.co2	1	SAM1301	0.000	
5	  CB	9.032	19.304	15.014	C.3	1	SAM1301	0.000	
6	  CG	8.074	18.137	14.739	C.3	1	SAM1301	0.000	
7	  SD	8.985	16.650	14.227	S.3	1	SAM1301	0.000	
8	  CE	7.687	15.576	13.634	C.3	1	SAM1301	0.000	
9	 C5'	9.510	15.782	15.792	C.3	1	SAM1301	0.000	
10	 C4'	8.349	15.060	16.558	C.3	1	SAM1301	0.000	
11	 O4'	8.008	13.745	16.015	O.3	1	SAM1301	0.000	
12	 C3'	8.659	14.828	18.039	C.3	1	SAM1301	0.000	
13	 O3'	8.440	16.026	18.809	O.3	1	SAM1301	0.000	
14	 C2'	7.761	13.623	18.388	C.3	1	SAM1301	0.000	
15	 O2'	6.420	13.985	18.663	O.3	1	SAM1301	0.000	
16	 C1'	7.758	12.785	17.103	C.3	1	SAM1301	0.000	
17	 OXT	8.138	19.226	12.045	O.co2	1	SAM1301	0.000	
18	  N1	9.631	8.147	18.545	N.2	1	SAM1301	0.000	
19	  C2	8.489	8.753	18.862	C.2	1	SAM1301	0.000	
20	  N3	8.066	9.959	18.472	N.2	1	SAM1301	0.000	
21	  C4	8.968	10.554	17.670	C.2	1	SAM1301	0.000	
22	  C5	10.180	10.039	17.265	C.2	1	SAM1301	0.000	
23	  C6	10.534	8.714	17.743	C.2	1	SAM1301	0.000	
24	  N6	11.639	8.066	17.367	N.pl3	1	SAM1301	0.000	
25	  N7	10.835	10.912	16.411	N.2	1	SAM1301	0.000	
26	  C8	10.012	11.917	16.309	C.2	1	SAM1301	0.000	
27	  N9	8.864	11.782	17.037	N.2	1	SAM1301	0.000	
@<TRIPOS>BOND
1 1 2 1
2 2 3 1
3 2 5 1
4 3 4 ar
5 3 17 ar
6 5 6 1
7 6 7 1
8 7 8 1
9 7 9 1
10 9 10 1
11 10 11 1
12 10 12 1
13 11 16 1
14 12 13 1
15 12 14 1
16 14 15 1
17 14 16 1
18 16 27 1
19 18 19 ar
20 18 23 ar
21 19 20 ar
22 20 21 ar
23 21 22 ar
24 21 27 ar
25 22 23 ar
26 22 25 ar
27 23 24 1
28 25 26 ar
29 26 27 ar
@<TRIPOS>SUBSTRUCTURE
1	SAM1301	1	GROUP	1 A	SAM
