@<TRIPOS>MOLECULE
1MSK.A
51 53 1 0 0 
SMALL
USER_CHARGES


@<TRIPOS>ATOM
  1 N       10.3280    21.1370    14.0020 N.4   1 SAM  -0.8530 
  2 H1       9.6742    21.8075    14.3802 H     1 SAM   0.4500 
  3 H2      10.7163    21.4943    13.1408 H     1 SAM   0.4500 
  4 H3      11.0718    20.9800    14.6670 H     1 SAM   0.4500 
  5 CA       9.6530    19.9080    13.7450 C.3   1 SAM   0.3170 
  6 HA      10.3991    19.2240    13.3407 H     1 SAM   0.0800 
  7 C        8.5250    20.1480    12.8000 C.2   1 SAM   0.9060 
  8 O        7.9850    21.2690    12.7990 O.co2 1 SAM  -0.9000 
  9 CB       9.0320    19.3040    15.0140 C.3   1 SAM  -0.1600 
 10 HB1      8.4795    20.0874    15.5327 H     1 SAM   0.0800 
 11 HB2      9.8381    18.9438    15.6532 H     1 SAM   0.0800 
 12 CG       8.0740    18.1370    14.7390 C.3   1 SAM  -0.1525 
 13 HG1      7.3836    18.4225    13.9453 H     1 SAM   0.0800 
 14 HG2      7.5126    17.9157    15.6467 H     1 SAM   0.0800 
 15 SD       8.9850    16.6500    14.2270 S.3   1 SAM   0.9775 
 16 CE       7.6870    15.5760    13.6340 C.3   1 SAM  -0.2325 
 17 HE1      7.2826    15.9744    12.7035 H     1 SAM   0.0800 
 18 HE2      6.8940    15.5185    14.3796 H     1 SAM   0.0800 
 19 HE3      8.0922    14.5797    13.4570 H     1 SAM   0.0800 
 20 C5'      9.5100    15.7820    15.7920 C.3   1 SAM  -0.1525 
 21 H5'1     9.9496    16.5223    16.4604 H     1 SAM   0.0800 
 22 H5'2    10.2610    15.0362    15.5316 H     1 SAM   0.0800 
 23 C4'      8.3490    15.0600    16.5580 C.3   1 SAM   0.2000 
 24 H4'      7.5160    15.7516    16.4319 H     1 SAM   0.0800 
 25 O4'      8.0080    13.7450    16.0150 O.3   1 SAM  -0.5600 
 26 C3'      8.6590    14.8280    18.0390 C.3   1 SAM   0.2000 
 27 H3'      9.7005    14.6034    18.2690 H     1 SAM   0.0800 
 28 O3'      8.4400    16.0260    18.8090 O.3   1 SAM  -0.6800 
 29 H3'      8.5968    15.8109    19.7314 H     1 SAM   0.4000 
 30 C2'      7.7610    13.6230    18.3880 C.3   1 SAM   0.2000 
 31 H2'      8.1370    13.1204    19.2791 H     1 SAM   0.0800 
 32 O2'      6.4200    13.9850    18.6630 O.3   1 SAM  -0.6800 
 33 H2'      6.4275    14.5697    19.4244 H     1 SAM   0.4000 
 34 C1'      7.7580    12.7850    17.1030 C.3   1 SAM   0.5691 
 35 H1'      6.8156    12.2402    17.0467 H     1 SAM   0.0800 
 36 OXT      8.1380    19.2260    12.0450 O.co2 1 SAM  -0.9000 
 37 N1       9.6310     8.1470    18.5450 N.2   1 SAM  -0.6610 
 38 C2       8.4890     8.7530    18.8620 C.2   1 SAM   0.6010 
 39 H2       7.8245     8.2039    19.5126 H     1 SAM   0.0600 
 40 N3       8.0660     9.9590    18.4720 N.2   1 SAM  -0.6610 
 41 C4       8.9680    10.5540    17.6700 C.2   1 SAM   0.5000 
 42 C5      10.1800    10.0390    17.2650 C.2   1 SAM   0.4500 
 43 C6      10.5340     8.7140    17.7430 C.2   1 SAM   0.6110 
 44 N6      11.6390     8.0660    17.3670 N.2   1 SAM  -0.2000 
 45 H62     11.8335     7.1450    17.7330 H     1 SAM   0.4000 
 46 H61     12.2804     8.4968    16.7166 H     1 SAM   0.4000 
 47 N7      10.8350    10.9120    16.4110 N.2   1 SAM  -0.6960 
 48 C8      10.0120    11.9170    16.3090 C.3   1 SAM   0.4551 
 49 H81      9.7391    12.0291    15.2597 H     1 SAM   0.0800 
 50 H82     10.5273    12.8155    16.6484 H     1 SAM   0.0800 
 51 N9       8.8640    11.7820    17.0370 N.pl3 1 SAM  -0.7882 
@<TRIPOS>BOND
  1   1   2  1   
  2   1   3  1   
  3   1   4  1   
  4   1   5  1   
  5   5   6  1   
  6   5   7  1   
  7   5   9  1   
  8   7   8  ar  
  9   7  36  ar  
 10   9  10  1   
 11   9  11  1   
 12   9  12  1   
 13  12  13  1   
 14  12  14  1   
 15  12  15  1   
 16  15  16  1   
 17  15  20  1   
 18  16  17  1   
 19  16  18  1   
 20  16  19  1   
 21  20  21  1   
 22  20  22  1   
 23  20  23  1   
 24  23  24  1   
 25  23  25  1   
 26  23  26  1   
 27  25  34  1   
 28  26  27  1   
 29  26  28  1   
 30  26  30  1   
 31  28  29  1   
 32  30  31  1   
 33  30  32  1   
 34  30  34  1   
 35  32  33  1   
 36  34  35  1   
 37  34  51  1   
 38  37  38  2   
 39  37  43  1   
 40  38  39  1   
 41  38  40  1   
 42  40  41  2   
 43  41  42  1   
 44  41  51  1   
 45  42  43  1   
 46  42  47  2   
 47  43  44  2   
 48  44  45  1   
 49  44  46  1   
 50  47  48  1   
 51  48  49  1   
 52  48  50  1   
 53  48  51  1   
@<TRIPOS>SUBSTRUCTURE
  1 SAM  23 GROUP 4 A **** 0

# MOE 2022.02 (io_trps.svl 2020.11)
