# created with PyMOL 2.4.0
@<TRIPOS>MOLECULE
temp
50 52 1                 
SMALL
USER_CHARGES
@<TRIPOS>ATOM
1	   N	10.328	21.137	14.002	N.4	1	SAM1	0.000	
2	  CA	9.653	19.908	13.745	C.3	1	SAM1	0.000	
3	   C	8.525	20.148	12.800	C.2	1	SAM1	0.000	
4	   O	7.985	21.269	12.799	O.co2	1	SAM1	0.000	
5	  CB	9.032	19.304	15.014	C.3	1	SAM1	0.000	
6	  CG	8.074	18.137	14.739	C.3	1	SAM1	0.000	
7	  SD	8.985	16.650	14.227	S.3	1	SAM1	0.000	
8	  CE	7.687	15.576	13.634	C.3	1	SAM1	0.000	
9	 C5'	9.510	15.782	15.792	C.3	1	SAM1	0.000	
10	 C4'	8.349	15.060	16.558	C.3	1	SAM1	0.000	
11	 O4'	8.008	13.745	16.015	O.3	1	SAM1	0.000	
12	 C3'	8.659	14.828	18.039	C.3	1	SAM1	0.000	
13	 O3'	8.440	16.026	18.809	O.3	1	SAM1	0.000	
14	 C2'	7.761	13.623	18.388	C.3	1	SAM1	0.000	
15	 O2'	6.420	13.985	18.663	O.3	1	SAM1	0.000	
16	 C1'	7.758	12.785	17.103	C.3	1	SAM1	0.000	
17	 OXT	8.138	19.226	12.045	O.co2	1	SAM1	0.000	
18	  N1	9.631	8.147	18.545	N.2	1	SAM1	0.000	
19	  C2	8.489	8.753	18.862	C.2	1	SAM1	0.000	
20	  N3	8.066	9.959	18.472	N.2	1	SAM1	0.000	
21	  C4	8.968	10.554	17.670	C.2	1	SAM1	0.000	
22	  C5	10.180	10.039	17.265	C.2	1	SAM1	0.000	
23	  C6	10.534	8.714	17.743	C.2	1	SAM1	0.000	
24	  N6	11.639	8.066	17.367	N.pl3	1	SAM1	0.000	
25	  N7	10.835	10.912	16.411	N.2	1	SAM1	0.000	
26	  C8	10.012	11.917	16.309	C.2	1	SAM1	0.000	
27	  N9	8.864	11.782	17.037	N.2	1	SAM1	0.000	
28	  HA	10.399	19.224	13.341	 H	1	SAM1	0.000	
29	 HB1	8.479	20.087	15.533	 H	1	SAM1	0.000	
30	 HB2	9.838	18.944	15.653	 H	1	SAM1	0.000	
31	 HG1	7.384	18.423	13.945	 H	1	SAM1	0.000	
32	 HG2	7.513	17.916	15.647	 H	1	SAM1	0.000	
33	 HE1	7.283	15.974	12.703	 H	1	SAM1	0.000	
34	 HE2	6.894	15.519	14.380	 H	1	SAM1	0.000	
35	 HE3	8.092	14.580	13.457	 H	1	SAM1	0.000	
36	  H1	9.674	21.808	14.380	 H	1	SAM1	0.000	
37	  H2	10.716	21.494	13.141	 H	1	SAM1	0.000	
38	  H2	7.825	8.204	19.513	 H	1	SAM1	0.000	
39	  H3	11.072	20.980	14.667	 H	1	SAM1	0.000	
40	  H8	10.220	12.784	15.700	 H	1	SAM1	0.000	
41	 H1'	6.816	12.240	17.047	 H	1	SAM1	0.000	
42	 H2'	8.137	13.120	19.279	 H	1	SAM1	0.000	
43	 H2'	6.427	14.570	19.424	 H	1	SAM1	0.000	
44	 H3'	9.700	14.603	18.269	 H	1	SAM1	0.000	
45	 H3'	8.597	15.811	19.731	 H	1	SAM1	0.000	
46	 H4'	7.516	15.752	16.432	 H	1	SAM1	0.000	
47	 H61	12.280	8.497	16.717	 H	1	SAM1	0.000	
48	 H62	11.833	7.145	17.733	 H	1	SAM1	0.000	
49	H5'1	9.950	16.522	16.460	 H	1	SAM1	0.000	
50	H5'2	10.261	15.036	15.532	 H	1	SAM1	0.000	
@<TRIPOS>BOND
1 1 2 1
2 1 36 1
3 1 37 1
4 1 39 1
5 2 3 1
6 2 5 1
7 2 28 1
8 3 4 ar
9 3 17 ar
10 5 6 1
11 5 29 1
12 5 30 1
13 6 7 1
14 6 31 1
15 6 32 1
16 7 8 1
17 7 9 1
18 8 33 1
19 8 34 1
20 8 35 1
21 9 10 1
22 9 49 1
23 9 50 1
24 10 11 1
25 10 12 1
26 10 46 1
27 11 16 1
28 12 13 1
29 12 14 1
30 12 44 1
31 13 45 1
32 14 15 1
33 14 16 1
34 14 42 1
35 15 43 1
36 16 27 1
37 16 41 1
38 18 19 ar
39 18 23 ar
40 19 20 ar
41 19 38 1
42 20 21 ar
43 21 22 ar
44 21 27 ar
45 22 23 ar
46 22 25 ar
47 23 24 1
48 24 47 1
49 24 48 1
50 25 26 ar
51 26 27 ar
52 26 40 1
@<TRIPOS>SUBSTRUCTURE
1	SAM1	1	GROUP	1 A	SAM
