# created with PyMOL 2.5.0
@<TRIPOS>MOLECULE
5XXD
27 30 1                 
SMALL
USER_CHARGES
@<TRIPOS>ATOM
1	 CAA	17.749	-0.230	120.796	C.2	1	8NR505	0.000	
2	 CAB	16.940	0.501	121.653	C.2	1	8NR505	0.000	
3	 CAC	16.737	0.167	122.989	C.2	1	8NR505	0.000	
4	 CAD	17.722	-0.678	123.491	C.2	1	8NR505	0.000	
5	 CAE	18.604	-1.384	122.679	C.2	1	8NR505	0.000	
6	 CAF	18.624	-1.163	121.307	C.2	1	8NR505	0.000	
7	 CAH	20.316	-2.911	122.452	C.3	1	8NR505	0.000	
8	 CAI	20.294	-2.803	121.064	C.3	1	8NR505	0.000	
9	 CAJ	19.479	-1.862	120.460	C.3	1	8NR505	0.000	
10	 CAK	21.076	-3.915	122.963	C.3	1	8NR505	0.000	
11	 CAL	22.364	-4.450	122.281	C.3	1	8NR505	0.000	
12	 CAM	21.784	-4.899	120.930	C.3	1	8NR505	0.000	
13	 CAN	21.236	-3.517	120.375	C.3	1	8NR505	0.000	
14	 CAP	16.157	0.870	124.038	C.3	1	8NR505	0.000	
15	 CAS	17.234	2.988	123.399	C.3	1	8NR505	0.000	
16	 CAT	16.776	4.291	122.783	C.3	1	8NR505	0.000	
17	 CAV	15.017	4.358	124.480	C.3	1	8NR505	0.000	
18	 CAW	15.527	3.038	125.062	C.3	1	8NR505	0.000	
19	 CAX	16.278	6.419	123.940	C.3	1	8NR505	0.000	
20	 NAG	19.441	-2.267	123.227	N.pl3	1	8NR505	0.000	
21	 NAR	16.115	2.210	123.984	N.3	1	8NR505	0.000	
22	 NAU	16.139	5.092	123.852	N.3	1	8NR505	0.000	
23	 OAQ	15.225	0.300	124.612	O.3	1	8NR505	0.000	
24	 OAY	17.202	6.963	123.333	O.3	1	8NR505	0.000	
25	 OAZ	15.654	7.090	124.947	O.3	1	8NR505	0.000	
26	 CBA	15.814	8.509	124.815	C.3	1	8NR505	0.000	
27	 CBB	14.966	8.985	123.623	C.3	1	8NR505	0.000	
@<TRIPOS>BOND
1 1 2 ar
2 1 6 ar
3 2 3 ar
4 3 4 ar
5 3 14 1
6 4 5 ar
7 5 6 ar
8 5 20 1
9 6 9 1
10 7 8 1
11 7 10 1
12 7 20 1
13 8 9 1
14 8 13 1
15 10 11 1
16 11 12 1
17 12 13 1
18 14 21 1
19 14 23 1
20 15 16 1
21 15 21 1
22 16 22 1
23 17 18 1
24 17 22 1
25 18 21 1
26 19 22 1
27 19 24 1
28 19 25 1
29 25 26 1
30 26 27 1
@<TRIPOS>SUBSTRUCTURE
1	8NR505	1	GROUP	1 A	8NR
