@<TRIPOS>MOLECULE
5XXD.A
56 59 1 0 0 
SMALL
USER_CHARGES


@<TRIPOS>ATOM
  1 CAA     17.7490    -0.2300   120.7960 C.ar  1 Q8NR  -0.1500 
  2 HAA     17.6930    -0.0680   119.7297 H     1 Q8NR   0.1500 
  3 CAB     16.9400     0.5010   121.6530 C.ar  1 Q8NR  -0.1500 
  4 HAB     16.4410     1.3759   121.2631 H     1 Q8NR   0.1500 
  5 CAC     16.7370     0.1670   122.9890 C.ar  1 Q8NR  -0.1435 
  6 CAD     17.7220    -0.6780   123.4910 C.ar  1 Q8NR  -0.1500 
  7 HAD     17.8058    -0.7912   124.5618 H     1 Q8NR   0.1500 
  8 CAE     18.6040    -1.3840   122.6790 C.ar  1 Q8NR   0.3100 
  9 CAF     18.6240    -1.1630   121.3070 C.ar  1 Q8NR   0.0000 
 10 CAH     20.3160    -2.9110   122.4520 C.ar  1 Q8NR   0.1665 
 11 CAI     20.2940    -2.8030   121.0640 C.ar  1 Q8NR  -0.1435 
 12 CAJ     19.4790    -1.8620   120.4600 C.ar  1 Q8NR  -0.1500 
 13 HAJ     19.5048    -1.6809   119.3956 H     1 Q8NR   0.1500 
 14 CAK     21.0760    -3.9150   122.9630 C.3   1 Q8NR  -0.0165 
 15 HAK1    20.4107    -4.7733   123.0569 H     1 Q8NR   0.0800 
 16 HAK2    21.3812    -3.5817   123.9549 H     1 Q8NR   0.0800 
 17 CAL     22.3640    -4.4500   122.2810 C.3   1 Q8NR  -0.1600 
 18 HAL1    22.7971    -5.2844   122.8326 H     1 Q8NR   0.0800 
 19 HAL2    23.1126    -3.6670   122.1597 H     1 Q8NR   0.0800 
 20 CAM     21.7840    -4.8990   120.9300 C.3   1 Q8NR  -0.1600 
 21 HAM1    20.9829    -5.6269   121.0583 H     1 Q8NR   0.0800 
 22 HAM2    22.5536    -5.3164   120.2807 H     1 Q8NR   0.0800 
 23 CAN     21.2360    -3.5170   120.3750 C.3   1 Q8NR  -0.0165 
 24 HAN1    22.1009    -2.8628   120.2649 H     1 Q8NR   0.0800 
 25 HAN2    20.8102    -3.7246   119.3933 H     1 Q8NR   0.0800 
 26 CAP     16.1570     0.8700   124.0380 C.3   1 Q8NR   0.6135 
 27 HAP     16.9680     0.8021   124.7631 H     1 Q8NR   0.0800 
 28 CAS     17.2340     2.9880   123.3990 C.3   1 Q8NR   0.1100 
 29 HAS1    17.9552     3.2083   124.1861 H     1 Q8NR   0.0800 
 30 HAS2    17.7119     2.3855   122.6265 H     1 Q8NR   0.0800 
 31 CAT     16.7760     4.2910   122.7830 C.3   1 Q8NR   0.1100 
 32 HAT1    16.0570     4.0937   121.9879 H     1 Q8NR   0.0800 
 33 HAT2    17.6309     4.8297   122.3743 H     1 Q8NR   0.0800 
 34 CAV     15.0170     4.3580   124.4800 C.3   1 Q8NR   0.1100 
 35 HAV1    14.5885     4.9645   125.2779 H     1 Q8NR   0.0800 
 36 HAV2    14.2533     4.1524   123.7299 H     1 Q8NR   0.0800 
 37 CAW     15.5270     3.0380   125.0620 C.3   1 Q8NR   0.1100 
 38 HAW1    14.6973     2.4998   125.5204 H     1 Q8NR   0.0800 
 39 HAW2    16.2870     3.2442   125.8157 H     1 Q8NR   0.0800 
 40 CAX     16.2780     6.4190   123.9400 C.3   1 Q8NR   0.7500 
 41 HAX     15.5126     6.6558   123.2010 H     1 Q8NR   0.0800 
 42 NAG     19.4410    -2.2670   123.2270 N.ar  1 Q8NR  -0.6200 
 43 NAR     16.1150     2.2100   123.9840 N.3   1 Q8NR  -0.8100 
 44 NAU     16.1390     5.0920   123.8520 N.3   1 Q8NR  -0.8100 
 45 OAQ     15.2250     0.3000   124.6120 O.3   1 Q8NR  -0.6800 
 46 HAQ     14.4658     0.3215   124.0248 H     1 Q8NR   0.4000 
 47 OAY     17.2020     6.9630   123.3330 O.3   1 Q8NR  -0.6800 
 48 HAY     17.9986     6.8522   123.8571 H     1 Q8NR   0.4000 
 49 OAZ     15.6540     7.0900   124.9470 O.3   1 Q8NR  -0.5600 
 50 CBA     15.8140     8.5090   124.8150 C.3   1 Q8NR   0.1200 
 51 HBA1    16.8631     8.7462   124.6384 H     1 Q8NR   0.0800 
 52 HBA2    15.4781     9.0036   125.7264 H     1 Q8NR   0.0800 
 53 CBB     14.9660     8.9850   123.6230 C.3   1 Q8NR  -0.2400 
 54 HBB1    15.3053     8.4879   122.7142 H     1 Q8NR   0.0800 
 55 HBB2    15.0730    10.0637   123.5087 H     1 Q8NR   0.0800 
 56 HBB3    13.9188     8.7406   123.8014 H     1 Q8NR   0.0800 
@<TRIPOS>BOND
  1   1   2  1   
  2   1   3  ar  
  3   1   9  ar  
  4   3   4  1   
  5   3   5  ar  
  6   5   6  ar  
  7   5  26  1   
  8   6   7  1   
  9   6   8  ar  
 10   8   9  ar  
 11   8  42  ar  
 12   9  12  ar  
 13  10  11  ar  
 14  10  14  1   
 15  10  42  ar  
 16  11  12  ar  
 17  11  23  1   
 18  12  13  1   
 19  14  15  1   
 20  14  16  1   
 21  14  17  1   
 22  17  18  1   
 23  17  19  1   
 24  17  20  1   
 25  20  21  1   
 26  20  22  1   
 27  20  23  1   
 28  23  24  1   
 29  23  25  1   
 30  26  27  1   
 31  26  43  1   
 32  26  45  1   
 33  28  29  1   
 34  28  30  1   
 35  28  31  1   
 36  28  43  1   
 37  31  32  1   
 38  31  33  1   
 39  31  44  1   
 40  34  35  1   
 41  34  36  1   
 42  34  37  1   
 43  34  44  1   
 44  37  38  1   
 45  37  39  1   
 46  37  43  1   
 47  40  41  1   
 48  40  44  1   
 49  40  47  1   
 50  40  49  1   
 51  45  46  1   
 52  47  48  1   
 53  49  50  1   
 54  50  51  1   
 55  50  52  1   
 56  50  53  1   
 57  53  54  1   
 58  53  55  1   
 59  53  56  1   
@<TRIPOS>SUBSTRUCTURE
  1 Q8NR   5 GROUP 4 A **** 0

# MOE 2022.02 (io_trps.svl 2020.11)
