# created with PyMOL 2.4.0
@<TRIPOS>MOLECULE
temp
50 52 1                 
SMALL
USER_CHARGES
@<TRIPOS>ATOM
1	   N	11.254	14.727	130.068	N.4	1	SAM1	0.000	
2	  CA	11.140	14.583	128.621	C.3	1	SAM1	0.000	
3	   C	10.111	15.549	128.042	C.2	1	SAM1	0.000	
4	   O	9.527	16.358	128.763	O.co2	1	SAM1	0.000	
5	  CB	10.780	13.147	128.258	C.3	1	SAM1	0.000	
6	  CG	11.984	12.236	128.043	C.3	1	SAM1	0.000	
7	  SD	12.990	12.763	126.632	S.3	1	SAM1	0.000	
8	  CE	13.157	11.213	125.715	C.3	1	SAM1	0.000	
9	 C5'	14.636	12.851	127.376	C.3	1	SAM1	0.000	
10	 C4'	14.886	14.142	128.140	C.3	1	SAM1	0.000	
11	 O4'	14.211	14.108	129.386	O.3	1	SAM1	0.000	
12	 C3'	16.366	14.330	128.436	C.3	1	SAM1	0.000	
13	 O3'	16.962	15.199	127.502	O.3	1	SAM1	0.000	
14	 C2'	16.388	14.932	129.820	C.3	1	SAM1	0.000	
15	 O2'	16.376	16.334	129.709	O.3	1	SAM1	0.000	
16	 C1'	15.076	14.497	130.436	C.3	1	SAM1	0.000	
17	 OXT	9.844	15.549	126.839	O.co2	1	SAM1	0.000	
18	  N1	16.675	12.728	135.130	N.2	1	SAM1	0.000	
19	  C2	16.628	14.038	134.693	C.2	1	SAM1	0.000	
20	  N3	16.174	14.329	133.422	N.2	1	SAM1	0.000	
21	  C4	15.776	13.334	132.593	C.2	1	SAM1	0.000	
22	  C5	15.825	12.012	133.015	C.2	1	SAM1	0.000	
23	  C6	16.275	11.708	134.293	C.2	1	SAM1	0.000	
24	  N6	16.322	10.444	134.704	N.pl3	1	SAM1	0.000	
25	  N7	15.381	11.236	132.003	N.2	1	SAM1	0.000	
26	  C8	15.062	12.026	130.956	C.2	1	SAM1	0.000	
27	  N9	15.296	13.330	131.307	N.2	1	SAM1	0.000	
28	  HA	12.109	14.828	128.185	 H	1	SAM1	0.000	
29	 HB1	10.195	13.163	127.338	 H	1	SAM1	0.000	
30	 HB2	10.177	12.731	129.065	 H	1	SAM1	0.000	
31	 HG1	11.630	11.221	127.863	 H	1	SAM1	0.000	
32	 HG2	12.602	12.251	128.941	 H	1	SAM1	0.000	
33	 HE1	12.226	10.999	125.190	 H	1	SAM1	0.000	
34	 HE2	13.377	10.402	126.409	 H	1	SAM1	0.000	
35	 HE3	13.969	11.304	124.993	 H	1	SAM1	0.000	
36	  H1	10.368	14.506	130.499	 H	1	SAM1	0.000	
37	  H2	11.510	15.678	130.293	 H	1	SAM1	0.000	
38	  H2	16.947	14.836	135.347	 H	1	SAM1	0.000	
39	  H3	11.963	14.097	130.414	 H	1	SAM1	0.000	
40	  H8	14.686	11.687	130.002	 H	1	SAM1	0.000	
41	 H1'	14.652	15.314	131.020	 H	1	SAM1	0.000	
42	 H2'	17.261	14.627	130.397	 H	1	SAM1	0.000	
43	 H2'	17.184	16.597	129.263	 H	1	SAM1	0.000	
44	 H3'	16.926	13.397	128.374	 H	1	SAM1	0.000	
45	 H3'	16.486	16.032	127.536	 H	1	SAM1	0.000	
46	 H4'	14.523	14.959	127.517	 H	1	SAM1	0.000	
47	 H61	16.030	9.701	134.086	 H	1	SAM1	0.000	
48	 H62	16.650	10.227	135.634	 H	1	SAM1	0.000	
49	H5'1	15.379	12.770	126.582	 H	1	SAM1	0.000	
50	H5'2	14.749	12.014	128.066	 H	1	SAM1	0.000	
@<TRIPOS>BOND
1 1 2 1
2 1 36 1
3 1 37 1
4 1 39 1
5 2 3 1
6 2 5 1
7 2 28 1
8 3 4 ar
9 3 17 ar
10 5 6 1
11 5 29 1
12 5 30 1
13 6 7 1
14 6 31 1
15 6 32 1
16 7 8 1
17 7 9 1
18 8 33 1
19 8 34 1
20 8 35 1
21 9 10 1
22 9 49 1
23 9 50 1
24 10 11 1
25 10 12 1
26 10 46 1
27 11 16 1
28 12 13 1
29 12 14 1
30 12 44 1
31 13 45 1
32 14 15 1
33 14 16 1
34 14 42 1
35 15 43 1
36 16 27 1
37 16 41 1
38 18 19 ar
39 18 23 ar
40 19 20 ar
41 19 38 1
42 20 21 ar
43 21 22 ar
44 21 27 ar
45 22 23 ar
46 22 25 ar
47 23 24 1
48 24 47 1
49 24 48 1
50 25 26 ar
51 26 27 ar
52 26 40 1
@<TRIPOS>SUBSTRUCTURE
1	SAM1	1	GROUP	1 A	SAM
