@<TRIPOS>MOLECULE
5XXD.A
51 53 1 0 0 
SMALL
USER_CHARGES


@<TRIPOS>ATOM
  1 N       11.2540    14.7270   130.0680 N.4   1 SAM  -0.8530 
  2 H1      10.3678    14.5059   130.4992 H     1 SAM   0.4500 
  3 H2      11.5097    15.6779   130.2926 H     1 SAM   0.4500 
  4 H3      11.9634    14.0969   130.4142 H     1 SAM   0.4500 
  5 CA      11.1400    14.5830   128.6210 C.3   1 SAM   0.3170 
  6 HA      12.1088    14.8275   128.1854 H     1 SAM   0.0800 
  7 C       10.1110    15.5490   128.0420 C.2   1 SAM   0.9060 
  8 O        9.5270    16.3580   128.7630 O.co2 1 SAM  -0.9000 
  9 CB      10.7800    13.1470   128.2580 C.3   1 SAM  -0.1600 
 10 HB1     10.1951    13.1632   127.3384 H     1 SAM   0.0800 
 11 HB2     10.1766    12.7314   129.0650 H     1 SAM   0.0800 
 12 CG      11.9840    12.2360   128.0430 C.3   1 SAM  -0.1525 
 13 HG1     11.6297    11.2210   127.8631 H     1 SAM   0.0800 
 14 HG2     12.6017    12.2513   128.9409 H     1 SAM   0.0800 
 15 SD      12.9900    12.7630   126.6320 S.3   1 SAM   0.9775 
 16 CE      13.1570    11.2130   125.7150 C.3   1 SAM  -0.2325 
 17 HE1     12.2260    10.9994   125.1899 H     1 SAM   0.0800 
 18 HE2     13.3769    10.4020   126.4093 H     1 SAM   0.0800 
 19 HE3     13.9687    11.3035   124.9932 H     1 SAM   0.0800 
 20 C5'     14.6360    12.8510   127.3760 C.3   1 SAM  -0.1525 
 21 H5'1    15.3786    12.7701   126.5822 H     1 SAM   0.0800 
 22 H5'2    14.7486    12.0143   128.0655 H     1 SAM   0.0800 
 23 C4'     14.8860    14.1420   128.1400 C.3   1 SAM   0.2000 
 24 H4'     14.5233    14.9594   127.5168 H     1 SAM   0.0800 
 25 O4'     14.2110    14.1080   129.3860 O.3   1 SAM  -0.5600 
 26 C3'     16.3660    14.3300   128.4360 C.3   1 SAM   0.2000 
 27 H3'     16.9257    13.3967   128.3743 H     1 SAM   0.0800 
 28 O3'     16.9620    15.1990   127.5020 O.3   1 SAM  -0.6800 
 29 H3'     16.4862    16.0321   127.5359 H     1 SAM   0.4000 
 30 C2'     16.3880    14.9320   129.8200 C.3   1 SAM   0.2000 
 31 H2'     17.2609    14.6274   130.3974 H     1 SAM   0.0800 
 32 O2'     16.3760    16.3340   129.7090 O.3   1 SAM  -0.6800 
 33 H2'     17.1843    16.5968   129.2626 H     1 SAM   0.4000 
 34 C1'     15.0760    14.4970   130.4360 C.3   1 SAM   0.5691 
 35 H1'     14.6518    15.3137   131.0201 H     1 SAM   0.0800 
 36 OXT      9.8440    15.5490   126.8390 O.co2 1 SAM  -0.9000 
 37 N1      16.6750    12.7280   135.1300 N.2   1 SAM  -0.6610 
 38 C2      16.6280    14.0380   134.6930 C.2   1 SAM   0.6010 
 39 H2      16.9471    14.8360   135.3471 H     1 SAM   0.0600 
 40 N3      16.1740    14.3290   133.4220 N.2   1 SAM  -0.6610 
 41 C4      15.7760    13.3340   132.5930 C.2   1 SAM   0.5000 
 42 C5      15.8250    12.0120   133.0150 C.2   1 SAM   0.4500 
 43 C6      16.2750    11.7080   134.2930 C.2   1 SAM   0.6110 
 44 N6      16.3220    10.4440   134.7040 N.2   1 SAM  -0.2000 
 45 H62     16.6500    10.2274   135.6344 H     1 SAM   0.4000 
 46 H61     16.0297     9.7007   134.0858 H     1 SAM   0.4000 
 47 N7      15.3810    11.2360   132.0030 N.2   1 SAM  -0.6960 
 48 C8      15.0620    12.0260   130.9560 C.3   1 SAM   0.4551 
 49 H81     14.0093    11.8962   130.7050 H     1 SAM   0.0800 
 50 H82     15.6761    11.7612   130.0953 H     1 SAM   0.0800 
 51 N9      15.2960    13.3300   131.3070 N.pl3 1 SAM  -0.7882 
@<TRIPOS>BOND
  1   1   2  1   
  2   1   3  1   
  3   1   4  1   
  4   1   5  1   
  5   5   6  1   
  6   5   7  1   
  7   5   9  1   
  8   7   8  ar  
  9   7  36  ar  
 10   9  10  1   
 11   9  11  1   
 12   9  12  1   
 13  12  13  1   
 14  12  14  1   
 15  12  15  1   
 16  15  16  1   
 17  15  20  1   
 18  16  17  1   
 19  16  18  1   
 20  16  19  1   
 21  20  21  1   
 22  20  22  1   
 23  20  23  1   
 24  23  24  1   
 25  23  25  1   
 26  23  26  1   
 27  25  34  1   
 28  26  27  1   
 29  26  28  1   
 30  26  30  1   
 31  28  29  1   
 32  30  31  1   
 33  30  32  1   
 34  30  34  1   
 35  32  33  1   
 36  34  35  1   
 37  34  51  1   
 38  37  38  2   
 39  37  43  1   
 40  38  39  1   
 41  38  40  1   
 42  40  41  2   
 43  41  42  1   
 44  41  51  1   
 45  42  43  1   
 46  42  47  2   
 47  43  44  2   
 48  44  45  1   
 49  44  46  1   
 50  47  48  1   
 51  48  49  1   
 52  48  50  1   
 53  48  51  1   
@<TRIPOS>SUBSTRUCTURE
  1 SAM  25 GROUP 4 A **** 0

# MOE 2022.02 (io_trps.svl 2020.11)
