# created with PyMOL 2.5.0
@<TRIPOS>MOLECULE
5XXD
27 29 1                 
SMALL
USER_CHARGES
@<TRIPOS>ATOM
1	   N	11.254	14.727	130.068	N.3	1	SAM501	0.000	
2	  CA	11.140	14.583	128.621	C.3	1	SAM501	0.000	
3	   C	10.111	15.549	128.042	C.2	1	SAM501	0.000	
4	   O	9.527	16.358	128.763	O.co2	1	SAM501	0.000	
5	  CB	10.780	13.147	128.258	C.3	1	SAM501	0.000	
6	  CG	11.984	12.236	128.043	C.3	1	SAM501	0.000	
7	  SD	12.990	12.763	126.632	S.3	1	SAM501	0.000	
8	  CE	13.157	11.213	125.715	C.3	1	SAM501	0.000	
9	 C5'	14.636	12.851	127.376	C.3	1	SAM501	0.000	
10	 C4'	14.886	14.142	128.140	C.3	1	SAM501	0.000	
11	 O4'	14.211	14.108	129.386	O.3	1	SAM501	0.000	
12	 C3'	16.366	14.330	128.436	C.3	1	SAM501	0.000	
13	 O3'	16.962	15.199	127.502	O.3	1	SAM501	0.000	
14	 C2'	16.388	14.932	129.820	C.3	1	SAM501	0.000	
15	 O2'	16.376	16.334	129.709	O.3	1	SAM501	0.000	
16	 C1'	15.076	14.497	130.436	C.3	1	SAM501	0.000	
17	 OXT	9.844	15.549	126.839	O.co2	1	SAM501	0.000	
18	  N1	16.675	12.728	135.130	N.2	1	SAM501	0.000	
19	  C2	16.628	14.038	134.693	C.2	1	SAM501	0.000	
20	  N3	16.174	14.329	133.422	N.2	1	SAM501	0.000	
21	  C4	15.776	13.334	132.593	C.2	1	SAM501	0.000	
22	  C5	15.825	12.012	133.015	C.2	1	SAM501	0.000	
23	  C6	16.275	11.708	134.293	C.2	1	SAM501	0.000	
24	  N6	16.322	10.444	134.704	N.pl3	1	SAM501	0.000	
25	  N7	15.381	11.236	132.003	N.2	1	SAM501	0.000	
26	  C8	15.062	12.026	130.956	C.2	1	SAM501	0.000	
27	  N9	15.296	13.330	131.307	N.2	1	SAM501	0.000	
@<TRIPOS>BOND
1 1 2 1
2 2 3 1
3 2 5 1
4 3 4 ar
5 3 17 ar
6 5 6 1
7 6 7 1
8 7 8 1
9 7 9 1
10 9 10 1
11 10 11 1
12 10 12 1
13 11 16 1
14 12 13 1
15 12 14 1
16 14 15 1
17 14 16 1
18 16 27 1
19 18 19 ar
20 18 23 ar
21 19 20 ar
22 20 21 ar
23 21 22 ar
24 21 27 ar
25 22 23 ar
26 22 25 ar
27 23 24 1
28 25 26 ar
29 26 27 ar
@<TRIPOS>SUBSTRUCTURE
1	SAM501	1	GROUP	1 A	SAM
