@<TRIPOS>MOLECULE
5UBB.A
51 53 1 0 0 
SMALL
USER_CHARGES


@<TRIPOS>ATOM
  1 N      -81.3600   150.4080   176.3900 N.4   1 SAM  -0.8530 
  2 H1     -81.3400   149.7057   177.1156 H     1 SAM   0.4500 
  3 H2     -81.6882   151.2817   176.7761 H     1 SAM   0.4500 
  4 H3     -80.4299   150.5332   176.0168 H     1 SAM   0.4500 
  5 CA     -82.2620   149.9780   175.3190 C.3   1 SAM   0.3170 
  6 HA     -82.2317   150.7786   174.5799 H     1 SAM   0.0800 
  7 C      -83.7250   149.7910   175.8320 C.2   1 SAM   0.9060 
  8 O      -83.9220   149.8450   177.0700 O.co2 1 SAM  -0.9000 
  9 CB     -81.8000   148.6480   174.6390 C.3   1 SAM  -0.1600 
 10 HB1    -80.9064   148.8536   174.0497 H     1 SAM   0.0800 
 11 HB2    -82.5971   148.3013   173.9813 H     1 SAM   0.0800 
 12 CG     -81.4750   147.5290   175.6430 C.3   1 SAM  -0.1525 
 13 HG1    -82.3843   147.2606   176.1808 H     1 SAM   0.0800 
 14 HG2    -80.7290   147.8928   176.3496 H     1 SAM   0.0800 
 15 SD     -80.8270   146.0550   174.8090 S.3   1 SAM   0.9775 
 16 CE     -81.3020   144.9320   176.1000 C.3   1 SAM  -0.2325 
 17 HE1    -82.3688   144.7217   176.0243 H     1 SAM   0.0800 
 18 HE2    -81.0882   145.3817   177.0696 H     1 SAM   0.0800 
 19 HE3    -80.7405   144.0033   175.9985 H     1 SAM   0.0800 
 20 C5'    -79.0540   146.2800   175.0950 C.3   1 SAM  -0.1525 
 21 H5'1   -78.5693   145.3080   175.0030 H     1 SAM   0.0800 
 22 H5'2   -78.9190   146.6588   176.1081 H     1 SAM   0.0800 
 23 C4'    -78.3600   147.2590   174.1180 C.3   1 SAM   0.2000 
 24 H4'    -79.0269   148.1208   174.1438 H     1 SAM   0.0800 
 25 O4'    -77.0150   147.5430   174.5630 O.3   1 SAM  -0.5600 
 26 C3'    -78.2610   146.8440   172.6460 C.3   1 SAM   0.2000 
 27 H3'    -78.9032   146.0016   172.3888 H     1 SAM   0.0800 
 28 O3'    -78.6690   147.9130   171.7980 O.3   1 SAM  -0.6800 
 29 H3'    -78.5445   147.6270   170.8901 H     1 SAM   0.4000 
 30 C2'    -76.7720   146.5250   172.4670 C.3   1 SAM   0.2000 
 31 H2'    -76.5292   145.4765   172.6394 H     1 SAM   0.0800 
 32 O2'    -76.3150   146.7630   171.1400 O.3   1 SAM  -0.6800 
 33 H2'    -75.3713   146.5879   171.1222 H     1 SAM   0.4000 
 34 C1'    -76.1360   147.5000   173.4600 C.3   1 SAM   0.5691 
 35 H1'    -75.9888   148.4485   172.9435 H     1 SAM   0.0800 
 36 OXT    -84.5930   149.5940   174.9580 O.co2 1 SAM  -0.9000 
 37 N1     -71.3070   149.0320   174.4310 N.2   1 SAM  -0.6610 
 38 C2     -72.3230   149.6380   173.8020 C.2   1 SAM   0.6010 
 39 H2     -72.1297   150.6449   173.4627 H     1 SAM   0.0600 
 40 N3     -73.5420   149.1630   173.5390 N.2   1 SAM  -0.6610 
 41 C4     -73.6860   147.9070   174.0020 C.2   1 SAM   0.5000 
 42 C5     -72.7270   147.1530   174.6590 C.2   1 SAM   0.4500 
 43 C6     -71.4750   147.7670   174.8820 C.2   1 SAM   0.6110 
 44 N6     -70.4780   147.2010   175.5720 N.2   1 SAM  -0.2000 
 45 H62    -69.6055   147.6946   175.6955 H     1 SAM   0.4000 
 46 H61    -70.5979   146.2802   175.9693 H     1 SAM   0.4000 
 47 N7     -73.2340   145.9090   175.0050 N.2   1 SAM  -0.6960 
 48 C8     -74.4680   145.9410   174.5630 C.3   1 SAM   0.4551 
 49 H81    -75.1384   145.7810   175.4074 H     1 SAM   0.0800 
 50 H82    -74.5941   145.1342   173.8410 H     1 SAM   0.0800 
 51 N9     -74.8140   147.1200   173.9560 N.pl3 1 SAM  -0.7882 
@<TRIPOS>BOND
  1   1   2  1   
  2   1   3  1   
  3   1   4  1   
  4   1   5  1   
  5   5   6  1   
  6   5   7  1   
  7   5   9  1   
  8   7   8  ar  
  9   7  36  ar  
 10   9  10  1   
 11   9  11  1   
 12   9  12  1   
 13  12  13  1   
 14  12  14  1   
 15  12  15  1   
 16  15  16  1   
 17  15  20  1   
 18  16  17  1   
 19  16  18  1   
 20  16  19  1   
 21  20  21  1   
 22  20  22  1   
 23  20  23  1   
 24  23  24  1   
 25  23  25  1   
 26  23  26  1   
 27  25  34  1   
 28  26  27  1   
 29  26  28  1   
 30  26  30  1   
 31  28  29  1   
 32  30  31  1   
 33  30  32  1   
 34  30  34  1   
 35  32  33  1   
 36  34  35  1   
 37  34  51  1   
 38  37  38  2   
 39  37  43  1   
 40  38  39  1   
 41  38  40  1   
 42  40  41  2   
 43  41  42  1   
 44  41  51  1   
 45  42  43  1   
 46  42  47  2   
 47  43  44  2   
 48  44  45  1   
 49  44  46  1   
 50  47  48  1   
 51  48  49  1   
 52  48  50  1   
 53  48  51  1   
@<TRIPOS>SUBSTRUCTURE
  1 SAM  25 GROUP 4 A **** 0

# MOE 2022.02 (io_trps.svl 2020.11)
