# created with PyMOL 2.4.0
@<TRIPOS>MOLECULE
temp
50 52 1                 
SMALL
USER_CHARGES
@<TRIPOS>ATOM
1	   N	-81.360	150.408	176.390	N.4	1	SAM1	0.000	
2	  CA	-82.262	149.978	175.319	C.3	1	SAM1	0.000	
3	   C	-83.725	149.791	175.832	C.2	1	SAM1	0.000	
4	   O	-83.922	149.845	177.070	O.co2	1	SAM1	0.000	
5	  CB	-81.800	148.648	174.639	C.3	1	SAM1	0.000	
6	  CG	-81.475	147.529	175.643	C.3	1	SAM1	0.000	
7	  SD	-80.827	146.055	174.809	S.3	1	SAM1	0.000	
8	  CE	-81.302	144.932	176.100	C.3	1	SAM1	0.000	
9	 C5'	-79.054	146.280	175.095	C.3	1	SAM1	0.000	
10	 C4'	-78.360	147.259	174.118	C.3	1	SAM1	0.000	
11	 O4'	-77.015	147.543	174.563	O.3	1	SAM1	0.000	
12	 C3'	-78.261	146.844	172.646	C.3	1	SAM1	0.000	
13	 O3'	-78.669	147.913	171.798	O.3	1	SAM1	0.000	
14	 C2'	-76.772	146.525	172.467	C.3	1	SAM1	0.000	
15	 O2'	-76.315	146.763	171.140	O.3	1	SAM1	0.000	
16	 C1'	-76.136	147.500	173.460	C.3	1	SAM1	0.000	
17	 OXT	-84.593	149.594	174.958	O.co2	1	SAM1	0.000	
18	  N1	-71.307	149.032	174.431	N.2	1	SAM1	0.000	
19	  C2	-72.323	149.638	173.802	C.2	1	SAM1	0.000	
20	  N3	-73.542	149.163	173.539	N.2	1	SAM1	0.000	
21	  C4	-73.686	147.907	174.002	C.2	1	SAM1	0.000	
22	  C5	-72.727	147.153	174.659	C.2	1	SAM1	0.000	
23	  C6	-71.475	147.767	174.882	C.2	1	SAM1	0.000	
24	  N6	-70.478	147.201	175.572	N.pl3	1	SAM1	0.000	
25	  N7	-73.234	145.909	175.005	N.2	1	SAM1	0.000	
26	  C8	-74.468	145.941	174.563	C.2	1	SAM1	0.000	
27	  N9	-74.814	147.120	173.956	N.2	1	SAM1	0.000	
28	  HA	-82.232	150.779	174.580	 H	1	SAM1	0.000	
29	 HB1	-80.906	148.854	174.050	 H	1	SAM1	0.000	
30	 HB2	-82.597	148.301	173.981	 H	1	SAM1	0.000	
31	 HG1	-82.384	147.261	176.181	 H	1	SAM1	0.000	
32	 HG2	-80.729	147.893	176.350	 H	1	SAM1	0.000	
33	 HE1	-82.369	144.722	176.024	 H	1	SAM1	0.000	
34	 HE2	-81.088	145.382	177.070	 H	1	SAM1	0.000	
35	 HE3	-80.741	144.003	175.999	 H	1	SAM1	0.000	
36	  H1	-81.340	149.706	177.116	 H	1	SAM1	0.000	
37	  H2	-81.688	151.282	176.776	 H	1	SAM1	0.000	
38	  H2	-72.130	150.645	173.463	 H	1	SAM1	0.000	
39	  H3	-80.430	150.533	176.017	 H	1	SAM1	0.000	
40	  H8	-75.151	145.111	174.668	 H	1	SAM1	0.000	
41	 H1'	-75.989	148.449	172.943	 H	1	SAM1	0.000	
42	 H2'	-76.529	145.477	172.639	 H	1	SAM1	0.000	
43	 H2'	-76.791	146.166	170.557	 H	1	SAM1	0.000	
44	 H3'	-78.903	146.002	172.389	 H	1	SAM1	0.000	
45	 H3'	-78.545	147.627	170.890	 H	1	SAM1	0.000	
46	 H4'	-79.027	148.121	174.144	 H	1	SAM1	0.000	
47	 H61	-70.598	146.280	175.969	 H	1	SAM1	0.000	
48	 H62	-69.605	147.695	175.695	 H	1	SAM1	0.000	
49	H5'1	-78.569	145.308	175.003	 H	1	SAM1	0.000	
50	H5'2	-78.919	146.659	176.108	 H	1	SAM1	0.000	
@<TRIPOS>BOND
1 1 2 1
2 1 36 1
3 1 37 1
4 1 39 1
5 2 3 1
6 2 5 1
7 2 28 1
8 3 4 ar
9 3 17 ar
10 5 6 1
11 5 29 1
12 5 30 1
13 6 7 1
14 6 31 1
15 6 32 1
16 7 8 1
17 7 9 1
18 8 33 1
19 8 34 1
20 8 35 1
21 9 10 1
22 9 49 1
23 9 50 1
24 10 11 1
25 10 12 1
26 10 46 1
27 11 16 1
28 12 13 1
29 12 14 1
30 12 44 1
31 13 45 1
32 14 15 1
33 14 16 1
34 14 42 1
35 15 43 1
36 16 27 1
37 16 41 1
38 18 19 ar
39 18 23 ar
40 19 20 ar
41 19 38 1
42 20 21 ar
43 21 22 ar
44 21 27 ar
45 22 23 ar
46 22 25 ar
47 23 24 1
48 24 47 1
49 24 48 1
50 25 26 ar
51 26 27 ar
52 26 40 1
@<TRIPOS>SUBSTRUCTURE
1	SAM1	1	GROUP	1 A	SAM
