# created with PyMOL 2.5.0
@<TRIPOS>MOLECULE
5UBB
27 29 1                 
SMALL
USER_CHARGES
@<TRIPOS>ATOM
1	   N	-81.360	150.408	176.390	N.3	1	SAM301	0.000	
2	  CA	-82.262	149.978	175.319	C.3	1	SAM301	0.000	
3	   C	-83.725	149.791	175.832	C.2	1	SAM301	0.000	
4	   O	-83.922	149.845	177.070	O.co2	1	SAM301	0.000	
5	  CB	-81.800	148.648	174.639	C.3	1	SAM301	0.000	
6	  CG	-81.475	147.529	175.643	C.3	1	SAM301	0.000	
7	  SD	-80.827	146.055	174.809	S.3	1	SAM301	0.000	
8	  CE	-81.302	144.932	176.100	C.3	1	SAM301	0.000	
9	 C5'	-79.054	146.280	175.095	C.3	1	SAM301	0.000	
10	 C4'	-78.360	147.259	174.118	C.3	1	SAM301	0.000	
11	 O4'	-77.015	147.543	174.563	O.3	1	SAM301	0.000	
12	 C3'	-78.261	146.844	172.646	C.3	1	SAM301	0.000	
13	 O3'	-78.669	147.913	171.798	O.3	1	SAM301	0.000	
14	 C2'	-76.772	146.525	172.467	C.3	1	SAM301	0.000	
15	 O2'	-76.315	146.763	171.140	O.3	1	SAM301	0.000	
16	 C1'	-76.136	147.500	173.460	C.3	1	SAM301	0.000	
17	 OXT	-84.593	149.594	174.958	O.co2	1	SAM301	0.000	
18	  N1	-71.307	149.032	174.431	N.2	1	SAM301	0.000	
19	  C2	-72.323	149.638	173.802	C.2	1	SAM301	0.000	
20	  N3	-73.542	149.163	173.539	N.2	1	SAM301	0.000	
21	  C4	-73.686	147.907	174.002	C.2	1	SAM301	0.000	
22	  C5	-72.727	147.153	174.659	C.2	1	SAM301	0.000	
23	  C6	-71.475	147.767	174.882	C.2	1	SAM301	0.000	
24	  N6	-70.478	147.201	175.572	N.pl3	1	SAM301	0.000	
25	  N7	-73.234	145.909	175.005	N.2	1	SAM301	0.000	
26	  C8	-74.468	145.941	174.563	C.2	1	SAM301	0.000	
27	  N9	-74.814	147.120	173.956	N.2	1	SAM301	0.000	
@<TRIPOS>BOND
1 1 2 1
2 2 3 1
3 2 5 1
4 3 4 ar
5 3 17 ar
6 5 6 1
7 6 7 1
8 7 8 1
9 7 9 1
10 9 10 1
11 10 11 1
12 10 12 1
13 11 16 1
14 12 13 1
15 12 14 1
16 14 15 1
17 14 16 1
18 16 27 1
19 18 19 ar
20 18 23 ar
21 19 20 ar
22 20 21 ar
23 21 22 ar
24 21 27 ar
25 22 23 ar
26 22 25 ar
27 23 24 1
28 25 26 ar
29 26 27 ar
@<TRIPOS>SUBSTRUCTURE
1	SAM301	1	GROUP	1 A	SAM
