@<TRIPOS>MOLECULE
4BLV.A
51 53 1 0 0 
SMALL
USER_CHARGES


@<TRIPOS>ATOM
  1 N       18.1780   -23.2500     4.7530 N.4   1 SAM  -0.8530 
  2 H1      18.3381   -22.5061     4.0888 H     1 SAM   0.4500 
  3 H2      17.8302   -22.8604     5.6175 H     1 SAM   0.4500 
  4 H3      17.4985   -23.8961     4.3776 H     1 SAM   0.4500 
  5 CA      19.4110   -23.9430     5.0020 C.3   1 SAM   0.3170 
  6 HA      19.2017   -24.7358     5.7202 H     1 SAM   0.0800 
  7 C       20.4320   -22.9790     5.6340 C.2   1 SAM   0.9060 
  8 O       20.2690   -21.8290     5.5640 O.co2 1 SAM  -0.9000 
  9 CB      19.9570   -24.7040     3.7920 C.3   1 SAM  -0.1600 
 10 HB1     20.1836   -25.7090     4.1479 H     1 SAM   0.0800 
 11 HB2     20.8825   -24.1997     3.5141 H     1 SAM   0.0800 
 12 CG      19.1760   -24.8850     2.5000 C.3   1 SAM  -0.1525 
 13 HG1     19.0390   -23.8937     2.0680 H     1 SAM   0.0800 
 14 HG2     18.2053   -25.3013     2.7692 H     1 SAM   0.0800 
 15 SD      19.8010   -25.8440     1.3180 S.3   1 SAM   0.9775 
 16 CE      20.7790   -25.0870     0.4660 C.3   1 SAM  -0.2325 
 17 HE1     21.5841   -24.7020     1.0918 H     1 SAM   0.0800 
 18 HE2     20.2690   -24.2563    -0.0218 H     1 SAM   0.0800 
 19 HE3     21.1937   -25.7533    -0.2904 H     1 SAM   0.0800 
 20 C5'     18.5510   -26.4480     0.3810 C.3   1 SAM  -0.1525 
 21 H5'1    18.9127   -26.5586    -0.6413 H     1 SAM   0.0800 
 22 H5'2    17.7312   -25.7299     0.4007 H     1 SAM   0.0800 
 23 C4'     18.0190   -27.7900     0.8450 C.3   1 SAM   0.2000 
 24 H4'     18.0017   -27.5439     1.9067 H     1 SAM   0.0800 
 25 O4'     16.7070   -28.1580     0.4820 O.3   1 SAM  -0.5600 
 26 C3'     18.9160   -28.9900     0.6070 C.3   1 SAM   0.2000 
 27 H3'     19.8267   -28.8375     0.0278 H     1 SAM   0.0800 
 28 O3'     19.2760   -29.4220     1.8620 O.3   1 SAM  -0.6800 
 29 H3'     19.7605   -30.2443     1.7581 H     1 SAM   0.4000 
 30 C2'     17.9690   -29.9700    -0.1180 C.3   1 SAM   0.2000 
 31 H2'     18.1774   -29.8922    -1.1851 H     1 SAM   0.0800 
 32 O2'     18.1210   -31.2980     0.1220 O.3   1 SAM  -0.6800 
 33 H2'     17.4871   -31.7664    -0.4261 H     1 SAM   0.4000 
 34 C1'     16.5760   -29.5520     0.3510 C.3   1 SAM   0.5691 
 35 H1'     16.3421   -30.1881     1.2047 H     1 SAM   0.0800 
 36 OXT     21.3540   -23.4400     6.2390 O.co2 1 SAM  -0.9000 
 37 N1      11.5180   -29.7430     0.2340 N.2   1 SAM  -0.6610 
 38 C2      12.3370   -29.7590     1.2460 C.2   1 SAM   0.6010 
 39 H2      11.9315   -29.7962     2.2463 H     1 SAM   0.0600 
 40 N3      13.6560   -29.7310     1.0870 N.2   1 SAM  -0.6610 
 41 C4      14.2220   -29.6830    -0.1230 C.2   1 SAM   0.5000 
 42 C5      13.3750   -29.6890    -1.2980 C.2   1 SAM   0.4500 
 43 C6      11.9400   -29.7290    -1.0350 C.2   1 SAM   0.6110 
 44 N6      11.1120   -29.7410    -2.0460 N.2   1 SAM  -0.2000 
 45 H62     10.1157   -29.7686    -1.8825 H     1 SAM   0.4000 
 46 H61     11.4684   -29.7227    -2.9909 H     1 SAM   0.4000 
 47 N7      14.1620   -29.6530    -2.3340 N.2   1 SAM  -0.6960 
 48 C8      15.4100   -29.6390    -1.8690 C.3   1 SAM   0.4551 
 49 H81     15.8994   -28.7234    -2.2011 H     1 SAM   0.0800 
 50 H82     15.9441   -30.5015    -2.2676 H     1 SAM   0.0800 
 51 N9      15.4450   -29.6870    -0.5620 N.pl3 1 SAM  -0.7882 
@<TRIPOS>BOND
  1   1   2  1   
  2   1   3  1   
  3   1   4  1   
  4   1   5  1   
  5   5   6  1   
  6   5   7  1   
  7   5   9  1   
  8   7   8  ar  
  9   7  36  ar  
 10   9  10  1   
 11   9  11  1   
 12   9  12  1   
 13  12  13  1   
 14  12  14  1   
 15  12  15  1   
 16  15  16  1   
 17  15  20  1   
 18  16  17  1   
 19  16  18  1   
 20  16  19  1   
 21  20  21  1   
 22  20  22  1   
 23  20  23  1   
 24  23  24  1   
 25  23  25  1   
 26  23  26  1   
 27  25  34  1   
 28  26  27  1   
 29  26  28  1   
 30  26  30  1   
 31  28  29  1   
 32  30  31  1   
 33  30  32  1   
 34  30  34  1   
 35  32  33  1   
 36  34  35  1   
 37  34  51  1   
 38  37  38  2   
 39  37  43  1   
 40  38  39  1   
 41  38  40  1   
 42  40  41  2   
 43  41  42  1   
 44  41  51  1   
 45  42  43  1   
 46  42  47  2   
 47  43  44  2   
 48  44  45  1   
 49  44  46  1   
 50  47  48  1   
 51  48  49  1   
 52  48  50  1   
 53  48  51  1   
@<TRIPOS>SUBSTRUCTURE
  1 SAM  25 GROUP 4 A **** 0

# MOE 2022.02 (io_trps.svl 2020.11)
