# created with PyMOL 2.5.0
@<TRIPOS>MOLECULE
4BLV
27 29 1                 
SMALL
USER_CHARGES
@<TRIPOS>ATOM
1	   N	18.178	-23.250	4.753	N.3	1	SAM1281	0.000	
2	  CA	19.411	-23.943	5.002	C.3	1	SAM1281	0.000	
3	   C	20.432	-22.979	5.634	C.2	1	SAM1281	0.000	
4	   O	20.269	-21.829	5.564	O.co2	1	SAM1281	0.000	
5	  CB	19.957	-24.704	3.792	C.3	1	SAM1281	0.000	
6	  CG	19.176	-24.885	2.500	C.3	1	SAM1281	0.000	
7	  SD	19.801	-25.844	1.318	S.3	1	SAM1281	0.000	
8	  CE	20.779	-25.087	0.466	C.3	1	SAM1281	0.000	
9	 C5'	18.551	-26.448	0.381	C.3	1	SAM1281	0.000	
10	 C4'	18.019	-27.790	0.845	C.3	1	SAM1281	0.000	
11	 O4'	16.707	-28.158	0.482	O.3	1	SAM1281	0.000	
12	 C3'	18.916	-28.990	0.607	C.3	1	SAM1281	0.000	
13	 O3'	19.276	-29.422	1.862	O.3	1	SAM1281	0.000	
14	 C2'	17.969	-29.970	-0.118	C.3	1	SAM1281	0.000	
15	 O2'	18.121	-31.298	0.122	O.3	1	SAM1281	0.000	
16	 C1'	16.576	-29.552	0.351	C.3	1	SAM1281	0.000	
17	 OXT	21.354	-23.440	6.239	O.co2	1	SAM1281	0.000	
18	  N1	11.518	-29.743	0.234	N.2	1	SAM1281	0.000	
19	  C2	12.337	-29.759	1.246	C.2	1	SAM1281	0.000	
20	  N3	13.656	-29.731	1.087	N.2	1	SAM1281	0.000	
21	  C4	14.222	-29.683	-0.123	C.2	1	SAM1281	0.000	
22	  C5	13.375	-29.689	-1.298	C.2	1	SAM1281	0.000	
23	  C6	11.940	-29.729	-1.035	C.2	1	SAM1281	0.000	
24	  N6	11.112	-29.741	-2.046	N.pl3	1	SAM1281	0.000	
25	  N7	14.162	-29.653	-2.334	N.2	1	SAM1281	0.000	
26	  C8	15.410	-29.639	-1.869	C.2	1	SAM1281	0.000	
27	  N9	15.445	-29.687	-0.562	N.2	1	SAM1281	0.000	
@<TRIPOS>BOND
1 1 2 1
2 2 3 1
3 2 5 1
4 3 4 ar
5 3 17 ar
6 5 6 1
7 6 7 1
8 7 8 1
9 7 9 1
10 9 10 1
11 10 11 1
12 10 12 1
13 11 16 1
14 12 13 1
15 12 14 1
16 14 15 1
17 14 16 1
18 16 27 1
19 18 19 ar
20 18 23 ar
21 19 20 ar
22 20 21 ar
23 21 22 ar
24 21 27 ar
25 22 23 ar
26 22 25 ar
27 23 24 1
28 25 26 ar
29 26 27 ar
@<TRIPOS>SUBSTRUCTURE
1	SAM1281	1	GROUP	1 A	SAM
