# created with PyMOL 2.4.0
@<TRIPOS>MOLECULE
temp
50 52 1                 
SMALL
USER_CHARGES
@<TRIPOS>ATOM
1	   N	18.178	-23.250	4.753	N.4	1	SAM1	0.000	
2	  CA	19.411	-23.943	5.002	C.3	1	SAM1	0.000	
3	   C	20.432	-22.979	5.634	C.2	1	SAM1	0.000	
4	   O	20.269	-21.829	5.564	O.co2	1	SAM1	0.000	
5	  CB	19.957	-24.704	3.792	C.3	1	SAM1	0.000	
6	  CG	19.176	-24.885	2.500	C.3	1	SAM1	0.000	
7	  SD	19.801	-25.844	1.318	S.3	1	SAM1	0.000	
8	  CE	20.779	-25.087	0.466	C.3	1	SAM1	0.000	
9	 C5'	18.551	-26.448	0.381	C.3	1	SAM1	0.000	
10	 C4'	18.019	-27.790	0.845	C.3	1	SAM1	0.000	
11	 O4'	16.707	-28.158	0.482	O.3	1	SAM1	0.000	
12	 C3'	18.916	-28.990	0.607	C.3	1	SAM1	0.000	
13	 O3'	19.276	-29.422	1.862	O.3	1	SAM1	0.000	
14	 C2'	17.969	-29.970	-0.118	C.3	1	SAM1	0.000	
15	 O2'	18.121	-31.298	0.122	O.3	1	SAM1	0.000	
16	 C1'	16.576	-29.552	0.351	C.3	1	SAM1	0.000	
17	 OXT	21.354	-23.440	6.239	O.co2	1	SAM1	0.000	
18	  N1	11.518	-29.743	0.234	N.2	1	SAM1	0.000	
19	  C2	12.337	-29.759	1.246	C.2	1	SAM1	0.000	
20	  N3	13.656	-29.731	1.087	N.2	1	SAM1	0.000	
21	  C4	14.222	-29.683	-0.123	C.2	1	SAM1	0.000	
22	  C5	13.375	-29.689	-1.298	C.2	1	SAM1	0.000	
23	  C6	11.940	-29.729	-1.035	C.2	1	SAM1	0.000	
24	  N6	11.112	-29.741	-2.046	N.pl3	1	SAM1	0.000	
25	  N7	14.162	-29.653	-2.334	N.2	1	SAM1	0.000	
26	  C8	15.410	-29.639	-1.869	C.2	1	SAM1	0.000	
27	  N9	15.445	-29.687	-0.562	N.2	1	SAM1	0.000	
28	  HA	19.202	-24.736	5.720	 H	1	SAM1	0.000	
29	 HB1	20.184	-25.709	4.148	 H	1	SAM1	0.000	
30	 HB2	20.882	-24.200	3.514	 H	1	SAM1	0.000	
31	 HG1	19.039	-23.894	2.068	 H	1	SAM1	0.000	
32	 HG2	18.205	-25.301	2.769	 H	1	SAM1	0.000	
33	 HE1	21.584	-24.702	1.092	 H	1	SAM1	0.000	
34	 HE2	20.269	-24.256	-0.022	 H	1	SAM1	0.000	
35	 HE3	21.194	-25.753	-0.290	 H	1	SAM1	0.000	
36	  H1	18.338	-22.506	4.089	 H	1	SAM1	0.000	
37	  H2	17.830	-22.860	5.617	 H	1	SAM1	0.000	
38	  H2	11.932	-29.796	2.246	 H	1	SAM1	0.000	
39	  H3	17.499	-23.896	4.378	 H	1	SAM1	0.000	
40	  H8	16.288	-29.593	-2.496	 H	1	SAM1	0.000	
41	 H1'	16.342	-30.188	1.205	 H	1	SAM1	0.000	
42	 H2'	18.177	-29.892	-1.185	 H	1	SAM1	0.000	
43	 H2'	19.022	-31.533	-0.109	 H	1	SAM1	0.000	
44	 H3'	19.827	-28.837	0.028	 H	1	SAM1	0.000	
45	 H3'	19.760	-30.244	1.758	 H	1	SAM1	0.000	
46	 H4'	18.002	-27.544	1.907	 H	1	SAM1	0.000	
47	 H61	11.468	-29.723	-2.991	 H	1	SAM1	0.000	
48	 H62	10.116	-29.769	-1.883	 H	1	SAM1	0.000	
49	H5'1	18.913	-26.559	-0.641	 H	1	SAM1	0.000	
50	H5'2	17.731	-25.730	0.401	 H	1	SAM1	0.000	
@<TRIPOS>BOND
1 1 2 1
2 1 36 1
3 1 37 1
4 1 39 1
5 2 3 1
6 2 5 1
7 2 28 1
8 3 4 ar
9 3 17 ar
10 5 6 1
11 5 29 1
12 5 30 1
13 6 7 1
14 6 31 1
15 6 32 1
16 7 8 1
17 7 9 1
18 8 33 1
19 8 34 1
20 8 35 1
21 9 10 1
22 9 49 1
23 9 50 1
24 10 11 1
25 10 12 1
26 10 46 1
27 11 16 1
28 12 13 1
29 12 14 1
30 12 44 1
31 13 45 1
32 14 15 1
33 14 16 1
34 14 42 1
35 15 43 1
36 16 27 1
37 16 41 1
38 18 19 ar
39 18 23 ar
40 19 20 ar
41 19 38 1
42 20 21 ar
43 21 22 ar
44 21 27 ar
45 22 23 ar
46 22 25 ar
47 23 24 1
48 24 47 1
49 24 48 1
50 25 26 ar
51 26 27 ar
52 26 40 1
@<TRIPOS>SUBSTRUCTURE
1	SAM1	1	GROUP	1 A	SAM
