@<TRIPOS>MOLECULE
6P3N.A
51 53 1 0 0 
SMALL
USER_CHARGES


@<TRIPOS>ATOM
  1 N       68.0490    34.7340     5.7500 N.4   1 SAM  -0.8530 
  2 H1      68.3086    35.5613     5.2321 H     1 SAM   0.4500 
  3 H2      67.4962    34.1278     5.1610 H     1 SAM   0.4500 
  4 H3      68.8827    34.2468     6.0462 H     1 SAM   0.4500 
  5 CA      67.2650    35.1200     6.9260 C.3   1 SAM   0.3170 
  6 HA      66.9974    34.2125     7.4672 H     1 SAM   0.0800 
  7 C       65.9690    35.7870     6.5220 C.2   1 SAM   0.9060 
  8 O       65.8010    36.0910     5.3220 O.co2 1 SAM  -0.9000 
  9 CB      68.0940    35.9790     7.8970 C.3   1 SAM  -0.1600 
 10 HB1     68.9886    35.4186     8.1684 H     1 SAM   0.0800 
 11 HB2     67.4940    36.1597     8.7889 H     1 SAM   0.0800 
 12 CG      68.5330    37.3390     7.3300 C.3   1 SAM  -0.1525 
 13 HG1     67.6463    37.8832     7.0047 H     1 SAM   0.0800 
 14 HG2     69.1866    37.1652     6.4752 H     1 SAM   0.0800 
 15 SD      69.3560    38.2770     8.4520 S.3   1 SAM   0.9775 
 16 CE      69.1680    39.8570     7.9920 C.3   1 SAM  -0.2325 
 17 HE1     68.1116    40.1230     8.0294 H     1 SAM   0.0800 
 18 HE2     69.5395    39.9861     6.9754 H     1 SAM   0.0800 
 19 HE3     69.7292    40.5016     8.6685 H     1 SAM   0.0800 
 20 C5'     70.9950    37.9660     8.3630 C.3   1 SAM  -0.1525 
 21 H5'1    71.5323    38.8000     8.8146 H     1 SAM   0.0800 
 22 H5'2    71.2759    37.8784     7.3135 H     1 SAM   0.0800 
 23 C4'     71.3960    36.6800     9.0840 C.3   1 SAM   0.2000 
 24 H4'     70.7306    35.9118     8.6900 H     1 SAM   0.0800 
 25 O4'     72.7630    36.3150     8.8400 O.3   1 SAM  -0.5600 
 26 C3'     71.2430    36.8210    10.5920 C.3   1 SAM   0.2000 
 27 H3'     70.8145    37.7638    10.9320 H     1 SAM   0.0800 
 28 O3'     70.3760    35.7700    11.0220 O.3   1 SAM  -0.6800 
 29 H3'     70.3299    35.8055    11.9802 H     1 SAM   0.4000 
 30 C2'     72.6490    36.6650    11.1270 C.3   1 SAM   0.2000 
 31 H2'     73.1601    37.6145    11.2861 H     1 SAM   0.0800 
 32 O2'     72.6880    36.0490    12.4140 O.3   1 SAM  -0.6800 
 33 H2'     73.6106    35.9453    12.6583 H     1 SAM   0.4000 
 34 C1'     73.2740    35.7810    10.0640 C.3   1 SAM   0.5691 
 35 H1'     73.0206    34.7306    10.2075 H     1 SAM   0.0800 
 36 OXT     65.0920    36.0150     7.3910 O.co2 1 SAM  -0.9000 
 37 N1      77.6030    32.8180    10.0500 N.2   1 SAM  -0.6610 
 38 C2      76.3020    32.4430    10.0100 C.2   1 SAM   0.6010 
 39 H2      76.0661    31.3898     9.9702 H     1 SAM   0.0600 
 40 N3      75.2860    33.3380    10.0180 N.2   1 SAM  -0.6610 
 41 C4      75.5110    34.6800    10.0720 C.2   1 SAM   0.5000 
 42 C5      76.9020    35.1590    10.1160 C.2   1 SAM   0.4500 
 43 C6      77.9670    34.1280    10.1060 C.2   1 SAM   0.6110 
 44 N6      79.2660    34.5120    10.1390 N.2   1 SAM  -0.2000 
 45 H62     79.9985    33.8166    10.1325 H     1 SAM   0.4000 
 46 H61     79.5018    35.4936    10.1701 H     1 SAM   0.4000 
 47 N7      76.8560    36.5000    10.1660 N.2   1 SAM  -0.6960 
 48 C8      75.5520    36.8650    10.1480 C.3   1 SAM   0.4551 
 49 H81     75.3658    37.4842     9.2705 H     1 SAM   0.0800 
 50 H82     75.3275    37.4353    11.0494 H     1 SAM   0.0800 
 51 N9      74.7540    35.7790    10.1010 N.pl3 1 SAM  -0.7882 
@<TRIPOS>BOND
  1   1   2  1   
  2   1   3  1   
  3   1   4  1   
  4   1   5  1   
  5   5   6  1   
  6   5   7  1   
  7   5   9  1   
  8   7   8  ar  
  9   7  36  ar  
 10   9  10  1   
 11   9  11  1   
 12   9  12  1   
 13  12  13  1   
 14  12  14  1   
 15  12  15  1   
 16  15  16  1   
 17  15  20  1   
 18  16  17  1   
 19  16  18  1   
 20  16  19  1   
 21  20  21  1   
 22  20  22  1   
 23  20  23  1   
 24  23  24  1   
 25  23  25  1   
 26  23  26  1   
 27  25  34  1   
 28  26  27  1   
 29  26  28  1   
 30  26  30  1   
 31  28  29  1   
 32  30  31  1   
 33  30  32  1   
 34  30  34  1   
 35  32  33  1   
 36  34  35  1   
 37  34  51  1   
 38  37  38  2   
 39  37  43  1   
 40  38  39  1   
 41  38  40  1   
 42  40  41  2   
 43  41  42  1   
 44  41  51  1   
 45  42  43  1   
 46  42  47  2   
 47  43  44  2   
 48  44  45  1   
 49  44  46  1   
 50  47  48  1   
 51  48  49  1   
 52  48  50  1   
 53  48  51  1   
@<TRIPOS>SUBSTRUCTURE
  1 SAM  25 GROUP 4 A **** 0

# MOE 2022.02 (io_trps.svl 2020.11)
