# created with PyMOL 2.4.0
@<TRIPOS>MOLECULE
temp
50 52 1                 
SMALL
USER_CHARGES
@<TRIPOS>ATOM
1	   N	68.049	34.734	5.750	N.4	1	SAM1	0.000	
2	  CA	67.265	35.120	6.926	C.3	1	SAM1	0.000	
3	   C	65.969	35.787	6.522	C.2	1	SAM1	0.000	
4	   O	65.801	36.091	5.322	O.co2	1	SAM1	0.000	
5	  CB	68.094	35.979	7.897	C.3	1	SAM1	0.000	
6	  CG	68.533	37.339	7.330	C.3	1	SAM1	0.000	
7	  SD	69.356	38.277	8.452	S.3	1	SAM1	0.000	
8	  CE	69.168	39.857	7.992	C.3	1	SAM1	0.000	
9	 C5'	70.995	37.966	8.363	C.3	1	SAM1	0.000	
10	 C4'	71.396	36.680	9.084	C.3	1	SAM1	0.000	
11	 O4'	72.763	36.315	8.840	O.3	1	SAM1	0.000	
12	 C3'	71.243	36.821	10.592	C.3	1	SAM1	0.000	
13	 O3'	70.376	35.770	11.022	O.3	1	SAM1	0.000	
14	 C2'	72.649	36.665	11.127	C.3	1	SAM1	0.000	
15	 O2'	72.688	36.049	12.414	O.3	1	SAM1	0.000	
16	 C1'	73.274	35.781	10.064	C.3	1	SAM1	0.000	
17	 OXT	65.092	36.015	7.391	O.co2	1	SAM1	0.000	
18	  N1	77.603	32.818	10.050	N.2	1	SAM1	0.000	
19	  C2	76.302	32.443	10.010	C.2	1	SAM1	0.000	
20	  N3	75.286	33.338	10.018	N.2	1	SAM1	0.000	
21	  C4	75.511	34.680	10.072	C.2	1	SAM1	0.000	
22	  C5	76.902	35.159	10.116	C.2	1	SAM1	0.000	
23	  C6	77.967	34.128	10.106	C.2	1	SAM1	0.000	
24	  N6	79.266	34.512	10.139	N.pl3	1	SAM1	0.000	
25	  N7	76.856	36.500	10.166	N.2	1	SAM1	0.000	
26	  C8	75.552	36.865	10.148	C.2	1	SAM1	0.000	
27	  N9	74.754	35.779	10.101	N.2	1	SAM1	0.000	
28	  HA	66.997	34.213	7.467	 H	1	SAM1	0.000	
29	 HB1	68.989	35.419	8.168	 H	1	SAM1	0.000	
30	 HB2	67.494	36.160	8.789	 H	1	SAM1	0.000	
31	 HG1	67.646	37.883	7.005	 H	1	SAM1	0.000	
32	 HG2	69.187	37.165	6.475	 H	1	SAM1	0.000	
33	 HE1	68.112	40.123	8.029	 H	1	SAM1	0.000	
34	 HE2	69.539	39.986	6.975	 H	1	SAM1	0.000	
35	 HE3	69.729	40.502	8.668	 H	1	SAM1	0.000	
36	  H1	68.309	35.561	5.232	 H	1	SAM1	0.000	
37	  H2	67.496	34.128	5.161	 H	1	SAM1	0.000	
38	  H2	76.066	31.390	9.970	 H	1	SAM1	0.000	
39	  H3	68.883	34.247	6.046	 H	1	SAM1	0.000	
40	  H8	75.200	37.886	10.168	 H	1	SAM1	0.000	
41	 H1'	73.021	34.731	10.208	 H	1	SAM1	0.000	
42	 H2'	73.160	37.614	11.286	 H	1	SAM1	0.000	
43	 H2'	72.228	36.628	13.027	 H	1	SAM1	0.000	
44	 H3'	70.814	37.764	10.932	 H	1	SAM1	0.000	
45	 H3'	70.330	35.806	11.980	 H	1	SAM1	0.000	
46	 H4'	70.731	35.912	8.690	 H	1	SAM1	0.000	
47	 H61	79.502	35.494	10.170	 H	1	SAM1	0.000	
48	 H62	79.998	33.817	10.132	 H	1	SAM1	0.000	
49	H5'1	71.532	38.800	8.815	 H	1	SAM1	0.000	
50	H5'2	71.276	37.878	7.313	 H	1	SAM1	0.000	
@<TRIPOS>BOND
1 1 2 1
2 1 36 1
3 1 37 1
4 1 39 1
5 2 3 1
6 2 5 1
7 2 28 1
8 3 4 ar
9 3 17 ar
10 5 6 1
11 5 29 1
12 5 30 1
13 6 7 1
14 6 31 1
15 6 32 1
16 7 8 1
17 7 9 1
18 8 33 1
19 8 34 1
20 8 35 1
21 9 10 1
22 9 49 1
23 9 50 1
24 10 11 1
25 10 12 1
26 10 46 1
27 11 16 1
28 12 13 1
29 12 14 1
30 12 44 1
31 13 45 1
32 14 15 1
33 14 16 1
34 14 42 1
35 15 43 1
36 16 27 1
37 16 41 1
38 18 19 ar
39 18 23 ar
40 19 20 ar
41 19 38 1
42 20 21 ar
43 21 22 ar
44 21 27 ar
45 22 23 ar
46 22 25 ar
47 23 24 1
48 24 47 1
49 24 48 1
50 25 26 ar
51 26 27 ar
52 26 40 1
@<TRIPOS>SUBSTRUCTURE
1	SAM1	1	GROUP	1 A	SAM
