# created with PyMOL 2.5.0
@<TRIPOS>MOLECULE
6P3N
27 29 1                 
SMALL
USER_CHARGES
@<TRIPOS>ATOM
1	   N	68.049	34.734	5.750	N.3	1	SAM401	0.000	
2	  CA	67.265	35.120	6.926	C.3	1	SAM401	0.000	
3	   C	65.969	35.787	6.522	C.2	1	SAM401	0.000	
4	   O	65.801	36.091	5.322	O.co2	1	SAM401	0.000	
5	  CB	68.094	35.979	7.897	C.3	1	SAM401	0.000	
6	  CG	68.533	37.339	7.330	C.3	1	SAM401	0.000	
7	  SD	69.356	38.277	8.452	S.3	1	SAM401	0.000	
8	  CE	69.168	39.857	7.992	C.3	1	SAM401	0.000	
9	 C5'	70.995	37.966	8.363	C.3	1	SAM401	0.000	
10	 C4'	71.396	36.680	9.084	C.3	1	SAM401	0.000	
11	 O4'	72.763	36.315	8.840	O.3	1	SAM401	0.000	
12	 C3'	71.243	36.821	10.592	C.3	1	SAM401	0.000	
13	 O3'	70.376	35.770	11.022	O.3	1	SAM401	0.000	
14	 C2'	72.649	36.665	11.127	C.3	1	SAM401	0.000	
15	 O2'	72.688	36.049	12.414	O.3	1	SAM401	0.000	
16	 C1'	73.274	35.781	10.064	C.3	1	SAM401	0.000	
17	 OXT	65.092	36.015	7.391	O.co2	1	SAM401	0.000	
18	  N1	77.603	32.818	10.050	N.2	1	SAM401	0.000	
19	  C2	76.302	32.443	10.010	C.2	1	SAM401	0.000	
20	  N3	75.286	33.338	10.018	N.2	1	SAM401	0.000	
21	  C4	75.511	34.680	10.072	C.2	1	SAM401	0.000	
22	  C5	76.902	35.159	10.116	C.2	1	SAM401	0.000	
23	  C6	77.967	34.128	10.106	C.2	1	SAM401	0.000	
24	  N6	79.266	34.512	10.139	N.pl3	1	SAM401	0.000	
25	  N7	76.856	36.500	10.166	N.2	1	SAM401	0.000	
26	  C8	75.552	36.865	10.148	C.2	1	SAM401	0.000	
27	  N9	74.754	35.779	10.101	N.2	1	SAM401	0.000	
@<TRIPOS>BOND
1 1 2 1
2 2 3 1
3 2 5 1
4 3 4 ar
5 3 17 ar
6 5 6 1
7 6 7 1
8 7 8 1
9 7 9 1
10 9 10 1
11 10 11 1
12 10 12 1
13 11 16 1
14 12 13 1
15 12 14 1
16 14 15 1
17 14 16 1
18 16 27 1
19 18 19 ar
20 18 23 ar
21 19 20 ar
22 20 21 ar
23 21 22 ar
24 21 27 ar
25 22 23 ar
26 22 25 ar
27 23 24 1
28 25 26 ar
29 26 27 ar
@<TRIPOS>SUBSTRUCTURE
1	SAM401	1	GROUP	1 A	SAM
