# created with PyMOL 2.5.0
@<TRIPOS>MOLECULE
3BWM
14 14 1                 
SMALL
USER_CHARGES
@<TRIPOS>ATOM
1	  C1	-4.540	-12.555	-16.207	C.2	1	DNC302	0.000	
2	  N1	-3.797	-9.746	-18.696	N.2	1	DNC302	0.000	
3	  O1	-4.979	-12.746	-14.930	O.3	1	DNC302	0.000	
4	  C2	-4.419	-11.187	-16.751	C.2	1	DNC302	0.000	
5	  N2	-3.431	-14.541	-19.112	N.2	1	DNC302	0.000	
6	  O2	-4.730	-10.119	-15.972	O.3	1	DNC302	0.000	
7	  C3	-3.946	-11.022	-18.139	C.2	1	DNC302	0.000	
8	  O3	-4.338	-8.772	-18.200	O.2	1	DNC302	0.000	
9	  C4	-3.639	-12.157	-18.876	C.2	1	DNC302	0.000	
10	  O4	-3.105	-9.595	-19.686	O.2	1	DNC302	0.000	
11	  C5	-3.773	-13.433	-18.328	C.2	1	DNC302	0.000	
12	  O5	-3.053	-14.345	-20.251	O.2	1	DNC302	0.000	
13	  C6	-4.211	-13.629	-17.016	C.2	1	DNC302	0.000	
14	  O6	-3.483	-15.692	-18.664	O.2	1	DNC302	0.000	
@<TRIPOS>BOND
1 1 3 1
2 1 4 ar
3 1 13 ar
4 2 7 1
5 2 8 ar
6 2 10 ar
7 4 6 1
8 4 7 ar
9 5 11 1
10 5 12 ar
11 5 14 ar
12 7 9 ar
13 9 11 ar
14 11 13 ar
@<TRIPOS>SUBSTRUCTURE
1	DNC302	1	GROUP	1 A	DNC
