@<TRIPOS>MOLECULE
3BWM.A
17 17 1 0 0 
SMALL
USER_CHARGES


@<TRIPOS>ATOM
  1 C1      -4.5400   -12.5550   -16.2070 C.ar  1 DNC   0.0825 
  2 N1      -3.7970    -9.7460   -18.6960 N.pl3 1 DNC   0.9070 
  3 O1      -4.9790   -12.7460   -14.9300 O.3   1 DNC  -0.5325 
  4 H1      -5.1825   -11.9420   -14.4464 H     1 DNC   0.4500 
  5 C2      -4.4190   -11.1870   -16.7510 C.ar  1 DNC  -0.1710 
  6 N2      -3.4310   -14.5410   -19.1120 N.pl3 1 DNC   0.9070 
  7 O2      -4.7300   -10.1190   -15.9720 O.3   1 DNC  -0.8290 
  8 C3      -3.9460   -11.0220   -18.1390 C.ar  1 DNC   0.1330 
  9 O3      -4.3380    -8.7720   -18.2000 O.2   1 DNC  -0.5200 
 10 C4      -3.6390   -12.1570   -18.8760 C.ar  1 DNC  -0.1500 
 11 H4      -3.2899   -12.0506   -19.8925 H     1 DNC   0.1500 
 12 O4      -3.1050    -9.5950   -19.6860 O.2   1 DNC  -0.5200 
 13 C5      -3.7730   -13.4330   -18.3280 C.ar  1 DNC   0.1330 
 14 O5      -3.0530   -14.3450   -20.2510 O.2   1 DNC  -0.5200 
 15 C6      -4.2110   -13.6290   -17.0160 C.ar  1 DNC  -0.1500 
 16 H6      -4.2941   -14.6332   -16.6272 H     1 DNC   0.1500 
 17 O6      -3.4830   -15.6920   -18.6640 O.2   1 DNC  -0.5200 
@<TRIPOS>BOND
  1   1   3  1   
  2   1   5  ar  
  3   1  15  ar  
  4   2   8  1   
  5   2   9  2   
  6   2  12  2   
  7   3   4  1   
  8   5   7  1   
  9   5   8  ar  
 10   6  13  1   
 11   6  14  2   
 12   6  17  2   
 13   8  10  ar  
 14  10  11  1   
 15  10  13  ar  
 16  13  15  ar  
 17  15  16  1   
@<TRIPOS>SUBSTRUCTURE
  1 DNC  10 GROUP 4 A **** 0

# MOE 2022.02 (io_trps.svl 2020.11)
