# created with PyMOL 2.5.0
@<TRIPOS>MOLECULE
3BWM
27 29 1                 
SMALL
USER_CHARGES
@<TRIPOS>ATOM
1	   N	-9.436	-7.062	-12.623	N.3	1	SAM301	0.000	
2	  CA	-10.413	-7.764	-13.503	C.3	1	SAM301	0.000	
3	   C	-10.999	-9.000	-12.829	C.2	1	SAM301	0.000	
4	   O	-10.325	-9.744	-12.109	O.co2	1	SAM301	0.000	
5	  CB	-9.747	-8.222	-14.800	C.3	1	SAM301	0.000	
6	  CG	-8.997	-7.141	-15.564	C.3	1	SAM301	0.000	
7	  SD	-8.416	-7.793	-17.147	S.3	1	SAM301	0.000	
8	  CE	-7.044	-8.840	-16.583	C.3	1	SAM301	0.000	
9	 C5'	-7.344	-6.494	-17.854	C.3	1	SAM301	0.000	
10	 C4'	-8.113	-5.220	-18.168	C.3	1	SAM301	0.000	
11	 O4'	-7.308	-4.061	-18.074	O.3	1	SAM301	0.000	
12	 C3'	-8.715	-5.258	-19.571	C.3	1	SAM301	0.000	
13	 O3'	-10.114	-5.088	-19.415	O.3	1	SAM301	0.000	
14	 C2'	-8.002	-4.128	-20.312	C.3	1	SAM301	0.000	
15	 O2'	-8.822	-3.498	-21.252	O.3	1	SAM301	0.000	
16	 C1'	-7.619	-3.196	-19.162	C.3	1	SAM301	0.000	
17	 OXT	-12.176	-9.300	-13.006	O.co2	1	SAM301	0.000	
18	  N1	-5.808	1.534	-18.182	N.2	1	SAM301	0.000	
19	  C2	-7.031	0.987	-17.825	C.2	1	SAM301	0.000	
20	  N3	-7.317	-0.302	-18.197	N.2	1	SAM301	0.000	
21	  C4	-6.423	-1.018	-18.906	C.2	1	SAM301	0.000	
22	  C5	-5.202	-0.487	-19.289	C.2	1	SAM301	0.000	
23	  C6	-4.898	0.815	-18.920	C.2	1	SAM301	0.000	
24	  N6	-3.738	1.365	-19.259	N.pl3	1	SAM301	0.000	
25	  N7	-4.531	-1.437	-19.974	N.2	1	SAM301	0.000	
26	  C8	-5.302	-2.543	-20.047	C.2	1	SAM301	0.000	
27	  N9	-6.477	-2.290	-19.395	N.2	1	SAM301	0.000	
@<TRIPOS>BOND
1 1 2 1
2 2 3 1
3 2 5 1
4 3 4 ar
5 3 17 ar
6 5 6 1
7 6 7 1
8 7 8 1
9 7 9 1
10 9 10 1
11 10 11 1
12 10 12 1
13 11 16 1
14 12 13 1
15 12 14 1
16 14 15 1
17 14 16 1
18 16 27 1
19 18 19 ar
20 18 23 ar
21 19 20 ar
22 20 21 ar
23 21 22 ar
24 21 27 ar
25 22 23 ar
26 22 25 ar
27 23 24 1
28 25 26 ar
29 26 27 ar
@<TRIPOS>SUBSTRUCTURE
1	SAM301	1	GROUP	1 A	SAM
