# created with PyMOL 2.4.0
@<TRIPOS>MOLECULE
temp
50 52 1                 
SMALL
USER_CHARGES
@<TRIPOS>ATOM
1	   N	-9.436	-7.062	-12.623	N.4	1	SAM1	0.000	
2	  CA	-10.413	-7.764	-13.503	C.3	1	SAM1	0.000	
3	   C	-10.999	-9.000	-12.829	C.2	1	SAM1	0.000	
4	   O	-10.325	-9.744	-12.109	O.co2	1	SAM1	0.000	
5	  CB	-9.747	-8.222	-14.800	C.3	1	SAM1	0.000	
6	  CG	-8.997	-7.141	-15.564	C.3	1	SAM1	0.000	
7	  SD	-8.416	-7.793	-17.147	S.3	1	SAM1	0.000	
8	  CE	-7.044	-8.840	-16.583	C.3	1	SAM1	0.000	
9	 C5'	-7.344	-6.494	-17.854	C.3	1	SAM1	0.000	
10	 C4'	-8.113	-5.220	-18.168	C.3	1	SAM1	0.000	
11	 O4'	-7.308	-4.061	-18.074	O.3	1	SAM1	0.000	
12	 C3'	-8.715	-5.258	-19.571	C.3	1	SAM1	0.000	
13	 O3'	-10.114	-5.088	-19.415	O.3	1	SAM1	0.000	
14	 C2'	-8.002	-4.128	-20.312	C.3	1	SAM1	0.000	
15	 O2'	-8.822	-3.498	-21.252	O.3	1	SAM1	0.000	
16	 C1'	-7.619	-3.196	-19.162	C.3	1	SAM1	0.000	
17	 OXT	-12.176	-9.300	-13.006	O.co2	1	SAM1	0.000	
18	  N1	-5.808	1.534	-18.182	N.2	1	SAM1	0.000	
19	  C2	-7.031	0.987	-17.825	C.2	1	SAM1	0.000	
20	  N3	-7.317	-0.302	-18.197	N.2	1	SAM1	0.000	
21	  C4	-6.423	-1.018	-18.906	C.2	1	SAM1	0.000	
22	  C5	-5.202	-0.487	-19.289	C.2	1	SAM1	0.000	
23	  C6	-4.898	0.815	-18.920	C.2	1	SAM1	0.000	
24	  N6	-3.738	1.365	-19.259	N.pl3	1	SAM1	0.000	
25	  N7	-4.531	-1.437	-19.974	N.2	1	SAM1	0.000	
26	  C8	-5.302	-2.543	-20.047	C.2	1	SAM1	0.000	
27	  N9	-6.477	-2.290	-19.395	N.2	1	SAM1	0.000	
28	  HA	-11.207	-7.046	-13.709	 H	1	SAM1	0.000	
29	 HB1	-10.523	-8.620	-15.454	 H	1	SAM1	0.000	
30	 HB2	-9.039	-9.013	-14.554	 H	1	SAM1	0.000	
31	 HG1	-8.142	-6.809	-14.975	 H	1	SAM1	0.000	
32	 HG2	-9.664	-6.298	-15.744	 H	1	SAM1	0.000	
33	 HE1	-7.443	-9.731	-16.099	 H	1	SAM1	0.000	
34	 HE2	-6.431	-8.284	-15.873	 H	1	SAM1	0.000	
35	 HE3	-6.435	-9.133	-17.438	 H	1	SAM1	0.000	
36	  H1	-8.674	-7.687	-12.400	 H	1	SAM1	0.000	
37	  H2	-9.896	-6.774	-11.771	 H	1	SAM1	0.000	
38	  H2	-7.748	1.567	-17.263	 H	1	SAM1	0.000	
39	  H3	-9.075	-6.249	-13.102	 H	1	SAM1	0.000	
40	  H8	-5.036	-3.468	-20.536	 H	1	SAM1	0.000	
41	 H1'	-8.455	-2.516	-18.997	 H	1	SAM1	0.000	
42	 H2'	-7.154	-4.467	-20.908	 H	1	SAM1	0.000	
43	 H2'	-9.060	-4.152	-21.913	 H	1	SAM1	0.000	
44	 H3'	-8.584	-6.180	-20.138	 H	1	SAM1	0.000	
45	 H3'	-10.499	-5.028	-20.292	 H	1	SAM1	0.000	
46	 H4'	-8.903	-5.170	-17.419	 H	1	SAM1	0.000	
47	 H61	-3.064	0.834	-19.792	 H	1	SAM1	0.000	
48	 H62	-3.530	2.314	-18.984	 H	1	SAM1	0.000	
49	H5'1	-6.898	-6.870	-18.775	 H	1	SAM1	0.000	
50	H5'2	-6.556	-6.261	-17.137	 H	1	SAM1	0.000	
@<TRIPOS>BOND
1 1 2 1
2 1 36 1
3 1 37 1
4 1 39 1
5 2 3 1
6 2 5 1
7 2 28 1
8 3 4 ar
9 3 17 ar
10 5 6 1
11 5 29 1
12 5 30 1
13 6 7 1
14 6 31 1
15 6 32 1
16 7 8 1
17 7 9 1
18 8 33 1
19 8 34 1
20 8 35 1
21 9 10 1
22 9 49 1
23 9 50 1
24 10 11 1
25 10 12 1
26 10 46 1
27 11 16 1
28 12 13 1
29 12 14 1
30 12 44 1
31 13 45 1
32 14 15 1
33 14 16 1
34 14 42 1
35 15 43 1
36 16 27 1
37 16 41 1
38 18 19 ar
39 18 23 ar
40 19 20 ar
41 19 38 1
42 20 21 ar
43 21 22 ar
44 21 27 ar
45 22 23 ar
46 22 25 ar
47 23 24 1
48 24 47 1
49 24 48 1
50 25 26 ar
51 26 27 ar
52 26 40 1
@<TRIPOS>SUBSTRUCTURE
1	SAM1	1	GROUP	1 A	SAM
