@<TRIPOS>MOLECULE
3BWM.A
51 53 1 0 0 
SMALL
USER_CHARGES


@<TRIPOS>ATOM
  1 N       -9.4360    -7.0620   -12.6230 N.4   1 SAM  -0.8530 
  2 H1      -8.6744    -7.6868   -12.3999 H     1 SAM   0.4500 
  3 H2      -9.8962    -6.7745   -11.7711 H     1 SAM   0.4500 
  4 H3      -9.0753    -6.2490   -13.1017 H     1 SAM   0.4500 
  5 CA     -10.4130    -7.7640   -13.5030 C.3   1 SAM   0.3170 
  6 HA     -11.2069    -7.0462   -13.7093 H     1 SAM   0.0800 
  7 C      -10.9990    -9.0000   -12.8290 C.2   1 SAM   0.9060 
  8 O      -10.3250    -9.7440   -12.1090 O.co2 1 SAM  -0.9000 
  9 CB      -9.7470    -8.2220   -14.8000 C.3   1 SAM  -0.1600 
 10 HB1    -10.5226    -8.6199   -15.4543 H     1 SAM   0.0800 
 11 HB2     -9.0386    -9.0129   -14.5535 H     1 SAM   0.0800 
 12 CG      -8.9970    -7.1410   -15.5640 C.3   1 SAM  -0.1525 
 13 HG1     -8.1422    -6.8094   -14.9746 H     1 SAM   0.0800 
 14 HG2     -9.6636    -6.2975   -15.7438 H     1 SAM   0.0800 
 15 SD      -8.4160    -7.7930   -17.1470 S.3   1 SAM   0.9775 
 16 CE      -7.0440    -8.8400   -16.5830 C.3   1 SAM  -0.2325 
 17 HE1     -7.4426    -9.7315   -16.0987 H     1 SAM   0.0800 
 18 HE2     -6.4308    -8.2844   -15.8735 H     1 SAM   0.0800 
 19 HE3     -6.4349    -9.1327   -17.4383 H     1 SAM   0.0800 
 20 C5'     -7.3440    -6.4940   -17.8540 C.3   1 SAM  -0.1525 
 21 H5'1    -6.8977    -6.8702   -18.7746 H     1 SAM   0.0800 
 22 H5'2    -6.5565    -6.2607   -17.1374 H     1 SAM   0.0800 
 23 C4'     -8.1130    -5.2200   -18.1680 C.3   1 SAM   0.2000 
 24 H4'     -8.9029    -5.1700   -17.4186 H     1 SAM   0.0800 
 25 O4'     -7.3080    -4.0610   -18.0740 O.3   1 SAM  -0.5600 
 26 C3'     -8.7150    -5.2580   -19.5710 C.3   1 SAM   0.2000 
 27 H3'     -8.5839    -6.1798   -20.1377 H     1 SAM   0.0800 
 28 O3'    -10.1140    -5.0880   -19.4150 O.3   1 SAM  -0.6800 
 29 H3'    -10.4987    -5.0279   -20.2925 H     1 SAM   0.4000 
 30 C2'     -8.0020    -4.1280   -20.3120 C.3   1 SAM   0.2000 
 31 H2'     -7.1544    -4.4666   -20.9079 H     1 SAM   0.0800 
 32 O2'     -8.8220    -3.4980   -21.2520 O.3   1 SAM  -0.6800 
 33 H2'     -8.3192    -2.7778   -21.6395 H     1 SAM   0.4000 
 34 C1'     -7.6190    -3.1960   -19.1620 C.3   1 SAM   0.5691 
 35 H1'     -8.4549    -2.5161   -18.9973 H     1 SAM   0.0800 
 36 OXT    -12.1760    -9.3000   -13.0060 O.co2 1 SAM  -0.9000 
 37 N1      -5.8080     1.5340   -18.1820 N.2   1 SAM  -0.6610 
 38 C2      -7.0310     0.9870   -17.8250 C.2   1 SAM   0.6010 
 39 H2      -7.7477     1.5670   -17.2625 H     1 SAM   0.0600 
 40 N3      -7.3170    -0.3020   -18.1970 N.2   1 SAM  -0.6610 
 41 C4      -6.4230    -1.0180   -18.9060 C.2   1 SAM   0.5000 
 42 C5      -5.2020    -0.4870   -19.2890 C.2   1 SAM   0.4500 
 43 C6      -4.8980     0.8150   -18.9200 C.2   1 SAM   0.6110 
 44 N6      -3.7380     1.3650   -19.2590 N.2   1 SAM  -0.2000 
 45 H62     -3.5295     2.3141   -18.9837 H     1 SAM   0.4000 
 46 H61     -3.0641     0.8342   -19.7922 H     1 SAM   0.4000 
 47 N7      -4.5310    -1.4370   -19.9740 N.2   1 SAM  -0.6960 
 48 C8      -5.3020    -2.5430   -20.0470 C.3   1 SAM   0.4551 
 49 H81     -4.7905    -3.3810   -19.5734 H     1 SAM   0.0800 
 50 H82     -5.5039    -2.7835   -21.0908 H     1 SAM   0.0800 
 51 N9      -6.4770    -2.2900   -19.3950 N.pl3 1 SAM  -0.7882 
@<TRIPOS>BOND
  1   1   2  1   
  2   1   3  1   
  3   1   4  1   
  4   1   5  1   
  5   5   6  1   
  6   5   7  1   
  7   5   9  1   
  8   7   8  ar  
  9   7  36  ar  
 10   9  10  1   
 11   9  11  1   
 12   9  12  1   
 13  12  13  1   
 14  12  14  1   
 15  12  15  1   
 16  15  16  1   
 17  15  20  1   
 18  16  17  1   
 19  16  18  1   
 20  16  19  1   
 21  20  21  1   
 22  20  22  1   
 23  20  23  1   
 24  23  24  1   
 25  23  25  1   
 26  23  26  1   
 27  25  34  1   
 28  26  27  1   
 29  26  28  1   
 30  26  30  1   
 31  28  29  1   
 32  30  31  1   
 33  30  32  1   
 34  30  34  1   
 35  32  33  1   
 36  34  35  1   
 37  34  51  1   
 38  37  38  2   
 39  37  43  1   
 40  38  39  1   
 41  38  40  1   
 42  40  41  2   
 43  41  42  1   
 44  41  51  1   
 45  42  43  1   
 46  42  47  2   
 47  43  44  2   
 48  44  45  1   
 49  44  46  1   
 50  47  48  1   
 51  48  49  1   
 52  48  50  1   
 53  48  51  1   
@<TRIPOS>SUBSTRUCTURE
  1 SAM  25 GROUP 4 A **** 0

# MOE 2022.02 (io_trps.svl 2020.11)
