# created with PyMOL 2.5.0
@<TRIPOS>MOLECULE
5WY0
27 29 1                 
SMALL
USER_CHARGES
@<TRIPOS>ATOM
1	   N	14.531	4.439	-20.307	N.3	1	SAM800	0.000	
2	  CA	15.765	5.010	-20.838	C.3	1	SAM800	0.000	
3	   C	16.990	4.334	-20.238	C.2	1	SAM800	0.000	
4	   O	18.088	4.440	-20.785	O.co2	1	SAM800	0.000	
5	  CB	15.835	6.514	-20.607	C.3	1	SAM800	0.000	
6	  CG	15.606	6.958	-19.165	C.3	1	SAM800	0.000	
7	  SD	15.744	8.761	-19.022	S.3	1	SAM800	0.000	
8	  CE	16.267	8.903	-17.291	C.3	1	SAM800	0.000	
9	 C5'	13.996	9.229	-18.895	C.3	1	SAM800	0.000	
10	 C4'	13.295	9.239	-20.255	C.3	1	SAM800	0.000	
11	 O4'	11.903	9.397	-20.079	O.3	1	SAM800	0.000	
12	 C3'	13.757	10.369	-21.167	C.3	1	SAM800	0.000	
13	 O3'	14.019	9.862	-22.466	O.3	1	SAM800	0.000	
14	 C2'	12.560	11.287	-21.234	C.3	1	SAM800	0.000	
15	 O2'	12.507	11.964	-22.461	O.3	1	SAM800	0.000	
16	 C1'	11.416	10.310	-21.041	C.3	1	SAM800	0.000	
17	 OXT	16.913	3.674	-19.197	O.co2	1	SAM800	0.000	
18	  N1	6.239	10.308	-21.452	N.2	1	SAM800	0.000	
19	  C2	7.160	9.593	-22.183	C.2	1	SAM800	0.000	
20	  N3	8.504	9.739	-21.928	N.2	1	SAM800	0.000	
21	  C4	8.924	10.573	-20.948	C.2	1	SAM800	0.000	
22	  C5	8.017	11.306	-20.200	C.2	1	SAM800	0.000	
23	  C6	6.662	11.169	-20.460	C.2	1	SAM800	0.000	
24	  N6	5.764	11.855	-19.769	N.pl3	1	SAM800	0.000	
25	  N7	8.719	12.054	-19.320	N.2	1	SAM800	0.000	
26	  C8	10.042	11.806	-19.494	C.2	1	SAM800	0.000	
27	  N9	10.177	10.898	-20.512	N.2	1	SAM800	0.000	
@<TRIPOS>BOND
1 1 2 1
2 2 3 1
3 2 5 1
4 3 4 ar
5 3 17 ar
6 5 6 1
7 6 7 1
8 7 8 1
9 7 9 1
10 9 10 1
11 10 11 1
12 10 12 1
13 11 16 1
14 12 13 1
15 12 14 1
16 14 15 1
17 14 16 1
18 16 27 1
19 18 19 ar
20 18 23 ar
21 19 20 ar
22 20 21 ar
23 21 22 ar
24 21 27 ar
25 22 23 ar
26 22 25 ar
27 23 24 1
28 25 26 ar
29 26 27 ar
@<TRIPOS>SUBSTRUCTURE
1	SAM800	1	GROUP	1 A	SAM
