@<TRIPOS>MOLECULE
5WY0.A
51 53 1 0 0 
SMALL
USER_CHARGES


@<TRIPOS>ATOM
  1 N       14.5310     4.4390   -20.3070 N.4   1 SAM  -0.8530 
  2 H1      14.4955     4.5841   -19.3081 H     1 SAM   0.4500 
  3 H2      14.5059     3.4488   -20.5045 H     1 SAM   0.4500 
  4 H3      13.7378     4.8890   -20.7410 H     1 SAM   0.4500 
  5 CA      15.7650     5.0100   -20.8380 C.3   1 SAM   0.3170 
  6 HA      15.7588     4.8302   -21.9130 H     1 SAM   0.0800 
  7 C       16.9900     4.3340   -20.2380 C.2   1 SAM   0.9060 
  8 O       18.0880     4.4400   -20.7850 O.co2 1 SAM  -0.9000 
  9 CB      15.8350     6.5140   -20.6070 C.3   1 SAM  -0.1600 
 10 HB1     15.0766     6.9872   -21.2307 H     1 SAM   0.0800 
 11 HB2     16.8232     6.8572   -20.9133 H     1 SAM   0.0800 
 12 CG      15.6060     6.9580   -19.1650 C.3   1 SAM  -0.1525 
 13 HG1     16.3523     6.4897   -18.5233 H     1 SAM   0.0800 
 14 HG2     14.6097     6.6489   -18.8490 H     1 SAM   0.0800 
 15 SD      15.7440     8.7610   -19.0220 S.3   1 SAM   0.9775 
 16 CE      16.2670     8.9030   -17.2910 C.3   1 SAM  -0.2325 
 17 HE1     17.3230     8.6457   -17.2082 H     1 SAM   0.0800 
 18 HE2     15.6779     8.2223   -16.6764 H     1 SAM   0.0800 
 19 HE3     16.1144     9.9264   -16.9481 H     1 SAM   0.0800 
 20 C5'     13.9960     9.2290   -18.8950 C.3   1 SAM  -0.1525 
 21 H5'1    13.9313    10.2265   -18.4604 H     1 SAM   0.0800 
 22 H5'2    13.4890     8.5159   -18.2450 H     1 SAM   0.0800 
 23 C4'     13.2950     9.2390   -20.2550 C.3   1 SAM   0.2000 
 24 H4'     13.5474     8.2868   -20.7216 H     1 SAM   0.0800 
 25 O4'     11.9030     9.3970   -20.0790 O.3   1 SAM  -0.5600 
 26 C3'     13.7570    10.3690   -21.1670 C.3   1 SAM   0.2000 
 27 H3'     14.6630    10.8571   -20.8077 H     1 SAM   0.0800 
 28 O3'     14.0190     9.8620   -22.4660 O.3   1 SAM  -0.6800 
 29 H3'     14.2564    10.6053   -23.0253 H     1 SAM   0.4000 
 30 C2'     12.5600    11.2870   -21.2340 C.3   1 SAM   0.2000 
 31 H2'     12.5593    12.0915   -20.4985 H     1 SAM   0.0800 
 32 O2'     12.5070    11.9640   -22.4610 O.3   1 SAM  -0.6800 
 33 H2'     11.6997    12.4834   -22.4713 H     1 SAM   0.4000 
 34 C1'     11.4160    10.3100   -21.0410 C.3   1 SAM   0.5691 
 35 H1'     11.1447     9.8884   -22.0089 H     1 SAM   0.0800 
 36 OXT     16.9130     3.6740   -19.1970 O.co2 1 SAM  -0.9000 
 37 N1       6.2390    10.3080   -21.4520 N.2   1 SAM  -0.6610 
 38 C2       7.1600     9.5930   -22.1830 C.2   1 SAM   0.6010 
 39 H2       6.8276     8.9171   -22.9570 H     1 SAM   0.0600 
 40 N3       8.5040     9.7390   -21.9280 N.2   1 SAM  -0.6610 
 41 C4       8.9240    10.5730   -20.9480 C.2   1 SAM   0.5000 
 42 C5       8.0170    11.3060   -20.2000 C.2   1 SAM   0.4500 
 43 C6       6.6620    11.1690   -20.4600 C.2   1 SAM   0.6110 
 44 N6       5.7640    11.8550   -19.7690 N.2   1 SAM  -0.2000 
 45 H62      4.7803    11.7447   -19.9698 H     1 SAM   0.4000 
 46 H61      6.0629    12.4884   -19.0413 H     1 SAM   0.4000 
 47 N7       8.7190    12.0540   -19.3200 N.2   1 SAM  -0.6960 
 48 C8      10.0420    11.8060   -19.4940 C.3   1 SAM   0.4551 
 49 H81     10.4646    11.3970   -18.5763 H     1 SAM   0.0800 
 50 H82     10.5598    12.7297   -19.7523 H     1 SAM   0.0800 
 51 N9      10.1770    10.8980   -20.5120 N.pl3 1 SAM  -0.7882 
@<TRIPOS>BOND
  1   1   2  1   
  2   1   3  1   
  3   1   4  1   
  4   1   5  1   
  5   5   6  1   
  6   5   7  1   
  7   5   9  1   
  8   7   8  ar  
  9   7  36  ar  
 10   9  10  1   
 11   9  11  1   
 12   9  12  1   
 13  12  13  1   
 14  12  14  1   
 15  12  15  1   
 16  15  16  1   
 17  15  20  1   
 18  16  17  1   
 19  16  18  1   
 20  16  19  1   
 21  20  21  1   
 22  20  22  1   
 23  20  23  1   
 24  23  24  1   
 25  23  25  1   
 26  23  26  1   
 27  25  34  1   
 28  26  27  1   
 29  26  28  1   
 30  26  30  1   
 31  28  29  1   
 32  30  31  1   
 33  30  32  1   
 34  30  34  1   
 35  32  33  1   
 36  34  35  1   
 37  34  51  1   
 38  37  38  2   
 39  37  43  1   
 40  38  39  1   
 41  38  40  1   
 42  40  41  2   
 43  41  42  1   
 44  41  51  1   
 45  42  43  1   
 46  42  47  2   
 47  43  44  2   
 48  44  45  1   
 49  44  46  1   
 50  47  48  1   
 51  48  49  1   
 52  48  50  1   
 53  48  51  1   
@<TRIPOS>SUBSTRUCTURE
  1 SAM  25 GROUP 4 A **** 0

# MOE 2022.02 (io_trps.svl 2020.11)
