# created with PyMOL 2.4.0
@<TRIPOS>MOLECULE
temp
50 52 1                 
SMALL
USER_CHARGES
@<TRIPOS>ATOM
1	   N	14.531	4.439	-20.307	N.4	1	SAM1	0.000	
2	  CA	15.765	5.010	-20.838	C.3	1	SAM1	0.000	
3	   C	16.990	4.334	-20.238	C.2	1	SAM1	0.000	
4	   O	18.088	4.440	-20.785	O.co2	1	SAM1	0.000	
5	  CB	15.835	6.514	-20.607	C.3	1	SAM1	0.000	
6	  CG	15.606	6.958	-19.165	C.3	1	SAM1	0.000	
7	  SD	15.744	8.761	-19.022	S.3	1	SAM1	0.000	
8	  CE	16.267	8.903	-17.291	C.3	1	SAM1	0.000	
9	 C5'	13.996	9.229	-18.895	C.3	1	SAM1	0.000	
10	 C4'	13.295	9.239	-20.255	C.3	1	SAM1	0.000	
11	 O4'	11.903	9.397	-20.079	O.3	1	SAM1	0.000	
12	 C3'	13.757	10.369	-21.167	C.3	1	SAM1	0.000	
13	 O3'	14.019	9.862	-22.466	O.3	1	SAM1	0.000	
14	 C2'	12.560	11.287	-21.234	C.3	1	SAM1	0.000	
15	 O2'	12.507	11.964	-22.461	O.3	1	SAM1	0.000	
16	 C1'	11.416	10.310	-21.041	C.3	1	SAM1	0.000	
17	 OXT	16.913	3.674	-19.197	O.co2	1	SAM1	0.000	
18	  N1	6.239	10.308	-21.452	N.2	1	SAM1	0.000	
19	  C2	7.160	9.593	-22.183	C.2	1	SAM1	0.000	
20	  N3	8.504	9.739	-21.928	N.2	1	SAM1	0.000	
21	  C4	8.924	10.573	-20.948	C.2	1	SAM1	0.000	
22	  C5	8.017	11.306	-20.200	C.2	1	SAM1	0.000	
23	  C6	6.662	11.169	-20.460	C.2	1	SAM1	0.000	
24	  N6	5.764	11.855	-19.769	N.pl3	1	SAM1	0.000	
25	  N7	8.719	12.054	-19.320	N.2	1	SAM1	0.000	
26	  C8	10.042	11.806	-19.494	C.2	1	SAM1	0.000	
27	  N9	10.177	10.898	-20.512	N.2	1	SAM1	0.000	
28	  HA	15.759	4.830	-21.913	 H	1	SAM1	0.000	
29	 HB1	15.077	6.987	-21.231	 H	1	SAM1	0.000	
30	 HB2	16.823	6.857	-20.913	 H	1	SAM1	0.000	
31	 HG1	16.352	6.490	-18.523	 H	1	SAM1	0.000	
32	 HG2	14.610	6.649	-18.849	 H	1	SAM1	0.000	
33	 HE1	17.323	8.646	-17.208	 H	1	SAM1	0.000	
34	 HE2	15.678	8.222	-16.676	 H	1	SAM1	0.000	
35	 HE3	16.114	9.926	-16.948	 H	1	SAM1	0.000	
36	  H1	14.495	4.584	-19.308	 H	1	SAM1	0.000	
37	  H2	14.506	3.449	-20.504	 H	1	SAM1	0.000	
38	  H2	6.828	8.917	-22.957	 H	1	SAM1	0.000	
39	  H3	13.738	4.889	-20.741	 H	1	SAM1	0.000	
40	  H8	10.849	12.248	-18.928	 H	1	SAM1	0.000	
41	 H1'	11.145	9.888	-22.009	 H	1	SAM1	0.000	
42	 H2'	12.559	12.092	-20.499	 H	1	SAM1	0.000	
43	 H2'	13.283	12.526	-22.516	 H	1	SAM1	0.000	
44	 H3'	14.663	10.857	-20.808	 H	1	SAM1	0.000	
45	 H3'	14.256	10.605	-23.025	 H	1	SAM1	0.000	
46	 H4'	13.547	8.287	-20.722	 H	1	SAM1	0.000	
47	 H61	6.063	12.488	-19.041	 H	1	SAM1	0.000	
48	 H62	4.780	11.745	-19.970	 H	1	SAM1	0.000	
49	H5'1	13.931	10.226	-18.460	 H	1	SAM1	0.000	
50	H5'2	13.489	8.516	-18.245	 H	1	SAM1	0.000	
@<TRIPOS>BOND
1 1 2 1
2 1 36 1
3 1 37 1
4 1 39 1
5 2 3 1
6 2 5 1
7 2 28 1
8 3 4 ar
9 3 17 ar
10 5 6 1
11 5 29 1
12 5 30 1
13 6 7 1
14 6 31 1
15 6 32 1
16 7 8 1
17 7 9 1
18 8 33 1
19 8 34 1
20 8 35 1
21 9 10 1
22 9 49 1
23 9 50 1
24 10 11 1
25 10 12 1
26 10 46 1
27 11 16 1
28 12 13 1
29 12 14 1
30 12 44 1
31 13 45 1
32 14 15 1
33 14 16 1
34 14 42 1
35 15 43 1
36 16 27 1
37 16 41 1
38 18 19 ar
39 18 23 ar
40 19 20 ar
41 19 38 1
42 20 21 ar
43 21 22 ar
44 21 27 ar
45 22 23 ar
46 22 25 ar
47 23 24 1
48 24 47 1
49 24 48 1
50 25 26 ar
51 26 27 ar
52 26 40 1
@<TRIPOS>SUBSTRUCTURE
1	SAM1	1	GROUP	1 A	SAM
