# created with PyMOL 2.5.0
@<TRIPOS>MOLECULE
2V3K
27 29 1                 
SMALL
USER_CHARGES
@<TRIPOS>ATOM
1	   N	23.716	8.720	41.089	N.3	1	SAM1254	0.000	
2	  CA	22.325	9.150	41.430	C.3	1	SAM1254	0.000	
3	   C	21.658	8.150	42.369	C.2	1	SAM1254	0.000	
4	   O	20.835	8.503	43.240	O.co2	1	SAM1254	0.000	
5	  CB	21.501	9.321	40.157	C.3	1	SAM1254	0.000	
6	  CG	20.157	9.995	40.367	C.3	1	SAM1254	0.000	
7	  SD	20.127	11.662	41.098	S.3	1	SAM1254	0.000	
8	  CE	18.365	11.706	41.527	C.3	1	SAM1254	0.000	
9	 C5'	20.177	12.622	39.551	C.3	1	SAM1254	0.000	
10	 C4'	21.441	13.509	39.376	C.3	1	SAM1254	0.000	
11	 O4'	21.459	14.640	40.242	O.3	1	SAM1254	0.000	
12	 C3'	22.757	12.825	39.667	C.3	1	SAM1254	0.000	
13	 O3'	23.179	11.979	38.618	O.3	1	SAM1254	0.000	
14	 C2'	23.699	13.962	39.986	C.3	1	SAM1254	0.000	
15	 O2'	24.156	14.556	38.792	O.3	1	SAM1254	0.000	
16	 C1'	22.777	14.965	40.658	C.3	1	SAM1254	0.000	
17	 OXT	21.932	6.948	42.277	O.co2	1	SAM1254	0.000	
18	  N1	25.317	16.889	44.699	N.2	1	SAM1254	0.000	
19	  C2	25.524	17.117	43.339	C.2	1	SAM1254	0.000	
20	  N3	24.718	16.488	42.432	N.2	1	SAM1254	0.000	
21	  C4	23.756	15.619	42.859	C.2	1	SAM1254	0.000	
22	  C5	23.518	15.380	44.215	C.2	1	SAM1254	0.000	
23	  C6	24.339	16.038	45.161	C.2	1	SAM1254	0.000	
24	  N6	24.238	15.860	46.494	N.pl3	1	SAM1254	0.000	
25	  N7	22.496	14.459	44.303	N.2	1	SAM1254	0.000	
26	  C8	22.045	14.177	43.034	C.2	1	SAM1254	0.000	
27	  N9	22.831	14.912	42.137	N.2	1	SAM1254	0.000	
@<TRIPOS>BOND
1 1 2 1
2 2 3 1
3 2 5 1
4 3 4 ar
5 3 17 ar
6 5 6 1
7 6 7 1
8 7 8 1
9 7 9 1
10 9 10 1
11 10 11 1
12 10 12 1
13 11 16 1
14 12 13 1
15 12 14 1
16 14 15 1
17 14 16 1
18 16 27 1
19 18 19 ar
20 18 23 ar
21 19 20 ar
22 20 21 ar
23 21 22 ar
24 21 27 ar
25 22 23 ar
26 22 25 ar
27 23 24 1
28 25 26 ar
29 26 27 ar
@<TRIPOS>SUBSTRUCTURE
1	SAM1254	1	GROUP	1 A	SAM
