@<TRIPOS>MOLECULE
2V3K.A
51 53 1 0 0 
SMALL
USER_CHARGES


@<TRIPOS>ATOM
  1 N       23.7160     8.7200    41.0890 N.4   1 SAM  -0.8530 
  2 H1      23.6858     7.8314    40.6099 H     1 SAM   0.4500 
  3 H2      24.2571     8.6272    41.9368 H     1 SAM   0.4500 
  4 H3      24.1447     9.4110    40.4900 H     1 SAM   0.4500 
  5 CA      22.3250     9.1500    41.4300 C.3   1 SAM   0.3170 
  6 HA      22.3793    10.1090    41.9453 H     1 SAM   0.0800 
  7 C       21.6580     8.1500    42.3690 C.2   1 SAM   0.9060 
  8 O       20.8350     8.5030    43.2400 O.co2 1 SAM  -0.9000 
  9 CB      21.5010     9.3210    40.1570 C.3   1 SAM  -0.1600 
 10 HB1     21.3245     8.3339    39.7297 H     1 SAM   0.0800 
 11 HB2     22.0784     9.9228    39.4552 H     1 SAM   0.0800 
 12 CG      20.1570     9.9950    40.3670 C.3   1 SAM  -0.1525 
 13 HG1     19.5703     9.3472    41.0184 H     1 SAM   0.0800 
 14 HG2     19.6748    10.0624    39.3918 H     1 SAM   0.0800 
 15 SD      20.1270    11.6620    41.0980 S.3   1 SAM   0.9775 
 16 CE      18.3650    11.7060    41.5270 C.3   1 SAM  -0.2325 
 17 HE1     18.2027    11.1547    42.4532 H     1 SAM   0.0800 
 18 HE2     17.7844    11.2490    40.7257 H     1 SAM   0.0800 
 19 HE3     18.0491    12.7407    41.6599 H     1 SAM   0.0800 
 20 C5'     20.1770    12.6220    39.5510 C.3   1 SAM  -0.1525 
 21 H5'1    19.3013    13.2705    39.5257 H     1 SAM   0.0800 
 22 H5'2    20.1352    11.9225    38.7161 H     1 SAM   0.0800 
 23 C4'     21.4410    13.5090    39.3760 C.3   1 SAM   0.2000 
 24 H4'     21.3602    13.7739    38.3218 H     1 SAM   0.0800 
 25 O4'     21.4590    14.6400    40.2420 O.3   1 SAM  -0.5600 
 26 C3'     22.7570    12.8250    39.6670 C.3   1 SAM   0.2000 
 27 H3'     22.6974    12.1264    40.5016 H     1 SAM   0.0800 
 28 O3'     23.1790    11.9790    38.6180 O.3   1 SAM  -0.6800 
 29 H3'     23.2607    12.5164    37.8267 H     1 SAM   0.4000 
 30 C2'     23.6990    13.9620    39.9860 C.3   1 SAM   0.2000 
 31 H2'     24.5625    13.6486    40.5727 H     1 SAM   0.0800 
 32 O2'     24.1560    14.5560    38.7920 O.3   1 SAM  -0.6800 
 33 H2'     24.6968    15.3119    39.0323 H     1 SAM   0.4000 
 34 C1'     22.7770    14.9650    40.6580 C.3   1 SAM   0.5691 
 35 H1'     23.0866    15.9702    40.3718 H     1 SAM   0.0800 
 36 OXT     21.9320     6.9480    42.2770 O.co2 1 SAM  -0.9000 
 37 N1      25.3170    16.8890    44.6990 N.2   1 SAM  -0.6610 
 38 C2      25.5240    17.1170    43.3390 C.2   1 SAM   0.6010 
 39 H2      26.3091    17.7804    43.0075 H     1 SAM   0.0600 
 40 N3      24.7180    16.4880    42.4320 N.2   1 SAM  -0.6610 
 41 C4      23.7560    15.6190    42.8590 C.2   1 SAM   0.5000 
 42 C5      23.5180    15.3800    44.2150 C.2   1 SAM   0.4500 
 43 C6      24.3390    16.0380    45.1610 C.2   1 SAM   0.6110 
 44 N6      24.2380    15.8600    46.4940 N.2   1 SAM  -0.2000 
 45 H62     24.8546    16.3600    47.1184 H     1 SAM   0.4000 
 46 H61     23.5457    15.2267    46.8679 H     1 SAM   0.4000 
 47 N7      22.4960    14.4590    44.3030 N.2   1 SAM  -0.6960 
 48 C8      22.0450    14.1770    43.0340 C.3   1 SAM   0.4551 
 49 H81     20.9989    14.4675    42.9373 H     1 SAM   0.0800 
 50 H82     22.1462    13.1109    42.8310 H     1 SAM   0.0800 
 51 N9      22.8310    14.9120    42.1370 N.pl3 1 SAM  -0.7882 
@<TRIPOS>BOND
  1   1   2  1   
  2   1   3  1   
  3   1   4  1   
  4   1   5  1   
  5   5   6  1   
  6   5   7  1   
  7   5   9  1   
  8   7   8  ar  
  9   7  36  ar  
 10   9  10  1   
 11   9  11  1   
 12   9  12  1   
 13  12  13  1   
 14  12  14  1   
 15  12  15  1   
 16  15  16  1   
 17  15  20  1   
 18  16  17  1   
 19  16  18  1   
 20  16  19  1   
 21  20  21  1   
 22  20  22  1   
 23  20  23  1   
 24  23  24  1   
 25  23  25  1   
 26  23  26  1   
 27  25  34  1   
 28  26  27  1   
 29  26  28  1   
 30  26  30  1   
 31  28  29  1   
 32  30  31  1   
 33  30  32  1   
 34  30  34  1   
 35  32  33  1   
 36  34  35  1   
 37  34  51  1   
 38  37  38  2   
 39  37  43  1   
 40  38  39  1   
 41  38  40  1   
 42  40  41  2   
 43  41  42  1   
 44  41  51  1   
 45  42  43  1   
 46  42  47  2   
 47  43  44  2   
 48  44  45  1   
 49  44  46  1   
 50  47  48  1   
 51  48  49  1   
 52  48  50  1   
 53  48  51  1   
@<TRIPOS>SUBSTRUCTURE
  1 SAM  48 GROUP 4 A **** 0

# MOE 2022.02 (io_trps.svl 2020.11)
