# created with PyMOL 2.4.0
@<TRIPOS>MOLECULE
temp
50 52 1                 
SMALL
USER_CHARGES
@<TRIPOS>ATOM
1	   N	23.716	8.720	41.089	N.4	1	SAM1	0.000	
2	  CA	22.325	9.150	41.430	C.3	1	SAM1	0.000	
3	   C	21.658	8.150	42.369	C.2	1	SAM1	0.000	
4	   O	20.835	8.503	43.240	O.co2	1	SAM1	0.000	
5	  CB	21.501	9.321	40.157	C.3	1	SAM1	0.000	
6	  CG	20.157	9.995	40.367	C.3	1	SAM1	0.000	
7	  SD	20.127	11.662	41.098	S.3	1	SAM1	0.000	
8	  CE	18.365	11.706	41.527	C.3	1	SAM1	0.000	
9	 C5'	20.177	12.622	39.551	C.3	1	SAM1	0.000	
10	 C4'	21.441	13.509	39.376	C.3	1	SAM1	0.000	
11	 O4'	21.459	14.640	40.242	O.3	1	SAM1	0.000	
12	 C3'	22.757	12.825	39.667	C.3	1	SAM1	0.000	
13	 O3'	23.179	11.979	38.618	O.3	1	SAM1	0.000	
14	 C2'	23.699	13.962	39.986	C.3	1	SAM1	0.000	
15	 O2'	24.156	14.556	38.792	O.3	1	SAM1	0.000	
16	 C1'	22.777	14.965	40.658	C.3	1	SAM1	0.000	
17	 OXT	21.932	6.948	42.277	O.co2	1	SAM1	0.000	
18	  N1	25.317	16.889	44.699	N.2	1	SAM1	0.000	
19	  C2	25.524	17.117	43.339	C.2	1	SAM1	0.000	
20	  N3	24.718	16.488	42.432	N.2	1	SAM1	0.000	
21	  C4	23.756	15.619	42.859	C.2	1	SAM1	0.000	
22	  C5	23.518	15.380	44.215	C.2	1	SAM1	0.000	
23	  C6	24.339	16.038	45.161	C.2	1	SAM1	0.000	
24	  N6	24.238	15.860	46.494	N.pl3	1	SAM1	0.000	
25	  N7	22.496	14.459	44.303	N.2	1	SAM1	0.000	
26	  C8	22.045	14.177	43.034	C.2	1	SAM1	0.000	
27	  N9	22.831	14.912	42.137	N.2	1	SAM1	0.000	
28	  HA	22.379	10.109	41.945	 H	1	SAM1	0.000	
29	 HB1	21.324	8.334	39.730	 H	1	SAM1	0.000	
30	 HB2	22.078	9.923	39.455	 H	1	SAM1	0.000	
31	 HG1	19.570	9.347	41.018	 H	1	SAM1	0.000	
32	 HG2	19.675	10.062	39.392	 H	1	SAM1	0.000	
33	 HE1	18.203	11.155	42.453	 H	1	SAM1	0.000	
34	 HE2	17.784	11.249	40.726	 H	1	SAM1	0.000	
35	 HE3	18.049	12.741	41.660	 H	1	SAM1	0.000	
36	  H1	23.686	7.831	40.610	 H	1	SAM1	0.000	
37	  H2	24.257	8.627	41.937	 H	1	SAM1	0.000	
38	  H2	26.309	17.780	43.007	 H	1	SAM1	0.000	
39	  H3	24.145	9.411	40.490	 H	1	SAM1	0.000	
40	  H8	21.234	13.511	42.777	 H	1	SAM1	0.000	
41	 H1'	23.087	15.970	40.372	 H	1	SAM1	0.000	
42	 H2'	24.562	13.649	40.573	 H	1	SAM1	0.000	
43	 H2'	24.669	13.897	38.318	 H	1	SAM1	0.000	
44	 H3'	22.697	12.126	40.502	 H	1	SAM1	0.000	
45	 H3'	23.261	12.516	37.827	 H	1	SAM1	0.000	
46	 H4'	21.360	13.774	38.322	 H	1	SAM1	0.000	
47	 H61	23.546	15.227	46.868	 H	1	SAM1	0.000	
48	 H62	24.855	16.360	47.118	 H	1	SAM1	0.000	
49	H5'1	19.301	13.271	39.526	 H	1	SAM1	0.000	
50	H5'2	20.135	11.922	38.716	 H	1	SAM1	0.000	
@<TRIPOS>BOND
1 1 2 1
2 1 36 1
3 1 37 1
4 1 39 1
5 2 3 1
6 2 5 1
7 2 28 1
8 3 4 ar
9 3 17 ar
10 5 6 1
11 5 29 1
12 5 30 1
13 6 7 1
14 6 31 1
15 6 32 1
16 7 8 1
17 7 9 1
18 8 33 1
19 8 34 1
20 8 35 1
21 9 10 1
22 9 49 1
23 9 50 1
24 10 11 1
25 10 12 1
26 10 46 1
27 11 16 1
28 12 13 1
29 12 14 1
30 12 44 1
31 13 45 1
32 14 15 1
33 14 16 1
34 14 42 1
35 15 43 1
36 16 27 1
37 16 41 1
38 18 19 ar
39 18 23 ar
40 19 20 ar
41 19 38 1
42 20 21 ar
43 21 22 ar
44 21 27 ar
45 22 23 ar
46 22 25 ar
47 23 24 1
48 24 47 1
49 24 48 1
50 25 26 ar
51 26 27 ar
52 26 40 1
@<TRIPOS>SUBSTRUCTURE
1	SAM1	1	GROUP	1 A	SAM
