# created with PyMOL 2.5.0
@<TRIPOS>MOLECULE
5EKX
10 10 1                 
SMALL
USER_CHARGES
@<TRIPOS>ATOM
1	 CAA	-40.393	-50.952	-17.013	C.3	1	2CQ302	0.000	
2	 CAE	-38.486	-49.838	-15.803	C.2	1	2CQ302	0.000	
3	 CAF	-40.270	-49.088	-13.706	C.2	1	2CQ302	0.000	
4	 CAG	-39.851	-50.210	-15.847	C.2	1	2CQ302	0.000	
5	 CAH	-38.006	-49.062	-14.711	C.2	1	2CQ302	0.000	
6	 CAI	-38.919	-48.691	-13.648	C.2	1	2CQ302	0.000	
7	 CAJ	-40.690	-49.823	-14.806	C.2	1	2CQ302	0.000	
8	 NAB	-36.644	-48.649	-14.716	N.pl3	1	2CQ302	0.000	
9	 NAC	-38.480	-47.938	-12.536	N.pl3	1	2CQ302	0.000	
10	  CL	-42.383	-50.227	-14.885	Cl	1	2CQ302	0.000	
@<TRIPOS>BOND
1 1 4 1
2 2 4 ar
3 2 5 ar
4 3 6 ar
5 3 7 ar
6 4 7 ar
7 5 6 ar
8 5 8 1
9 6 9 1
10 7 10 1
@<TRIPOS>SUBSTRUCTURE
1	2CQ302	1	GROUP	1 A	2CQ
