@<TRIPOS>MOLECULE
5EKX.A
19 19 1 0 0 
SMALL
USER_CHARGES


@<TRIPOS>ATOM
  1 CAA    -40.3930   -50.9520   -17.0130 C.3   1 Q2CQ  -0.0965 
  2 HAA1   -39.5870   -51.1633   -17.7157 H     1 Q2CQ   0.0800 
  3 HAA2   -41.1554   -50.3483   -17.5054 H     1 Q2CQ   0.0800 
  4 HAA3   -40.8346   -51.8891   -16.6740 H     1 Q2CQ   0.0800 
  5 CAE    -38.4860   -49.8380   -15.8030 C.ar  1 Q2CQ  -0.1500 
  6 HAE    -37.8139   -50.1408   -16.5923 H     1 Q2CQ   0.1500 
  7 CAF    -40.2700   -49.0880   -13.7060 C.ar  1 Q2CQ  -0.1500 
  8 HAF    -40.9594   -48.8276   -12.9165 H     1 Q2CQ   0.1500 
  9 CAG    -39.8510   -50.2100   -15.8470 C.ar  1 Q2CQ  -0.1435 
 10 CAH    -38.0060   -49.0620   -14.7110 C.ar  1 Q2CQ   0.1000 
 11 CAI    -38.9190   -48.6910   -13.6480 C.ar  1 Q2CQ   0.1000 
 12 CAJ    -40.6900   -49.8230   -14.8060 C.ar  1 Q2CQ   0.1770 
 13 NAB    -36.6440   -48.6490   -14.7160 N.pl3 1 Q2CQ  -0.9000 
 14 HAB1   -36.2863   -48.0792   -13.9627 H     1 Q2CQ   0.4000 
 15 HAB2   -36.0352   -48.9257   -15.4729 H     1 Q2CQ   0.4000 
 16 NAC    -38.4800   -47.9380   -12.5360 N.pl3 1 Q2CQ  -0.9000 
 17 HAC1   -37.5146   -47.6484   -12.4716 H     1 Q2CQ   0.4000 
 18 HAC2   -39.1316   -47.6894   -11.8055 H     1 Q2CQ   0.4000 
 19 CL     -42.3830   -50.2270   -14.8850 Cl    1 Q2CQ  -0.1770 
@<TRIPOS>BOND
  1   1   2  1   
  2   1   3  1   
  3   1   4  1   
  4   1   9  1   
  5   5   6  1   
  6   5   9  ar  
  7   5  10  ar  
  8   7   8  1   
  9   7  11  ar  
 10   7  12  ar  
 11   9  12  ar  
 12  10  11  ar  
 13  10  13  1   
 14  11  16  1   
 15  12  19  1   
 16  13  14  1   
 17  13  15  1   
 18  16  17  1   
 19  16  18  1   
@<TRIPOS>SUBSTRUCTURE
  1 Q2CQ  12 GROUP 4 A **** 0

# MOE 2022.02 (io_trps.svl 2020.11)
