@<TRIPOS>MOLECULE
5EKX.A
51 53 1 0 0 
SMALL
USER_CHARGES


@<TRIPOS>ATOM
  1 N      -22.6800   -43.0360   -18.6470 N.4   1 SAM  -0.8530 
  2 H1     -22.0755   -43.4201   -19.3592 H     1 SAM   0.4500 
  3 H2     -22.1199   -42.6865   -17.8826 H     1 SAM   0.4500 
  4 H3     -23.2239   -42.2805   -19.0387 H     1 SAM   0.4500 
  5 CA     -23.5960   -44.1000   -18.1460 C.3   1 SAM   0.3170 
  6 HA     -24.2536   -43.6961   -17.3762 H     1 SAM   0.0800 
  7 C      -22.7920   -45.2210   -17.4820 C.2   1 SAM   0.9060 
  8 O      -23.4250   -46.1680   -16.9590 O.co2 1 SAM  -0.9000 
  9 CB     -24.4970   -44.5890   -19.2810 C.3   1 SAM  -0.1600 
 10 HB1    -25.1174   -45.4136   -18.9300 H     1 SAM   0.0800 
 11 HB2    -23.8855   -44.9253   -20.1183 H     1 SAM   0.0800 
 12 CG     -25.3740   -43.4400   -19.7180 C.3   1 SAM  -0.1525 
 13 HG1    -24.7391   -42.6254   -20.0664 H     1 SAM   0.0800 
 14 HG2    -25.9627   -43.1024   -18.8650 H     1 SAM   0.0800 
 15 SD     -26.4950   -43.9140   -21.0480 S.3   1 SAM   0.9775 
 16 CE     -25.5630   -43.7570   -22.5000 C.3   1 SAM  -0.2325 
 17 HE1    -24.8650   -44.5908   -22.5756 H     1 SAM   0.0800 
 18 HE2    -25.0078   -42.8193   -22.4758 H     1 SAM   0.0800 
 19 HE3    -26.2299   -43.7621   -23.3622 H     1 SAM   0.0800 
 20 C5'    -27.5160   -42.4570   -21.1900 C.3   1 SAM  -0.1525 
 21 H5'1   -28.0510   -42.4706   -22.1396 H     1 SAM   0.0800 
 22 H5'2   -26.8951   -41.5628   -21.1356 H     1 SAM   0.0800 
 23 C4'    -28.5010   -42.4680   -20.0460 C.3   1 SAM   0.2000 
 24 H4'    -27.9319   -42.6228   -19.1293 H     1 SAM   0.0800 
 25 O4'    -29.2160   -41.2230   -20.1990 O.3   1 SAM  -0.5600 
 26 C3'    -29.5600   -43.5830   -20.0340 C.3   1 SAM   0.2000 
 27 H3'    -29.3731   -44.3029   -20.8308 H     1 SAM   0.0800 
 28 O3'    -29.5710   -44.3060   -18.8070 O.3   1 SAM  -0.6800 
 29 H3'    -30.2721   -44.9595   -18.8614 H     1 SAM   0.4000 
 30 C2'    -30.8930   -42.8200   -20.1330 C.3   1 SAM   0.2000 
 31 H2'    -31.3234   -42.8265   -21.1344 H     1 SAM   0.0800 
 32 O2'    -31.9110   -43.3980   -19.3310 O.3   1 SAM  -0.6800 
 33 H2'    -31.5900   -43.4211   -18.4266 H     1 SAM   0.4000 
 34 C1'    -30.4940   -41.4310   -19.6380 C.3   1 SAM   0.5691 
 35 H1'    -30.5433   -41.4052   -18.5494 H     1 SAM   0.0800 
 36 OXT    -21.5470   -45.0760   -17.4510 O.co2 1 SAM  -0.9000 
 37 N1     -32.7880   -36.9780   -18.4520 N.2   1 SAM  -0.6610 
 38 C2     -32.1150   -37.8550   -17.7050 C.2   1 SAM   0.6010 
 39 H2     -31.9322   -37.5553   -16.6836 H     1 SAM   0.0600 
 40 N3     -31.6350   -39.0580   -18.0510 N.2   1 SAM  -0.6610 
 41 C4     -31.8510   -39.3050   -19.3560 C.2   1 SAM   0.5000 
 42 C5     -32.5440   -38.5030   -20.2470 C.2   1 SAM   0.4500 
 43 C6     -33.0550   -37.2860   -19.7440 C.2   1 SAM   0.6110 
 44 N6     -33.7930   -36.4440   -20.4610 N.2   1 SAM  -0.2000 
 45 H62    -34.1301   -35.5877   -20.0449 H     1 SAM   0.4000 
 46 H61    -34.0165   -36.6607   -21.4218 H     1 SAM   0.4000 
 47 N7     -32.5250   -39.0540   -21.5220 N.2   1 SAM  -0.6960 
 48 C8     -31.8190   -40.1470   -21.3760 C.3   1 SAM   0.4551 
 49 H81    -30.9563   -40.0884   -22.0396 H     1 SAM   0.0800 
 50 H82    -32.4399   -40.9962   -21.6615 H     1 SAM   0.0800 
 51 N9     -31.3660   -40.3550   -20.0980 N.pl3 1 SAM  -0.7882 
@<TRIPOS>BOND
  1   1   2  1   
  2   1   3  1   
  3   1   4  1   
  4   1   5  1   
  5   5   6  1   
  6   5   7  1   
  7   5   9  1   
  8   7   8  ar  
  9   7  36  ar  
 10   9  10  1   
 11   9  11  1   
 12   9  12  1   
 13  12  13  1   
 14  12  14  1   
 15  12  15  1   
 16  15  16  1   
 17  15  20  1   
 18  16  17  1   
 19  16  18  1   
 20  16  19  1   
 21  20  21  1   
 22  20  22  1   
 23  20  23  1   
 24  23  24  1   
 25  23  25  1   
 26  23  26  1   
 27  25  34  1   
 28  26  27  1   
 29  26  28  1   
 30  26  30  1   
 31  28  29  1   
 32  30  31  1   
 33  30  32  1   
 34  30  34  1   
 35  32  33  1   
 36  34  35  1   
 37  34  51  1   
 38  37  38  2   
 39  37  43  1   
 40  38  39  1   
 41  38  40  1   
 42  40  41  2   
 43  41  42  1   
 44  41  51  1   
 45  42  43  1   
 46  42  47  2   
 47  43  44  2   
 48  44  45  1   
 49  44  46  1   
 50  47  48  1   
 51  48  49  1   
 52  48  50  1   
 53  48  51  1   
@<TRIPOS>SUBSTRUCTURE
  1 SAM  25 GROUP 4 A **** 0

# MOE 2022.02 (io_trps.svl 2020.11)
