# created with PyMOL 2.5.0
@<TRIPOS>MOLECULE
5EKX
27 29 1                 
SMALL
USER_CHARGES
@<TRIPOS>ATOM
1	   N	-22.680	-43.036	-18.647	N.3	1	SAM301	0.000	
2	  CA	-23.596	-44.100	-18.146	C.3	1	SAM301	0.000	
3	   C	-22.792	-45.221	-17.482	C.2	1	SAM301	0.000	
4	   O	-23.425	-46.168	-16.959	O.co2	1	SAM301	0.000	
5	  CB	-24.497	-44.589	-19.281	C.3	1	SAM301	0.000	
6	  CG	-25.374	-43.440	-19.718	C.3	1	SAM301	0.000	
7	  SD	-26.495	-43.914	-21.048	S.3	1	SAM301	0.000	
8	  CE	-25.563	-43.757	-22.500	C.3	1	SAM301	0.000	
9	 C5'	-27.516	-42.457	-21.190	C.3	1	SAM301	0.000	
10	 C4'	-28.501	-42.468	-20.046	C.3	1	SAM301	0.000	
11	 O4'	-29.216	-41.223	-20.199	O.3	1	SAM301	0.000	
12	 C3'	-29.560	-43.583	-20.034	C.3	1	SAM301	0.000	
13	 O3'	-29.571	-44.306	-18.807	O.3	1	SAM301	0.000	
14	 C2'	-30.893	-42.820	-20.133	C.3	1	SAM301	0.000	
15	 O2'	-31.911	-43.398	-19.331	O.3	1	SAM301	0.000	
16	 C1'	-30.494	-41.431	-19.638	C.3	1	SAM301	0.000	
17	 OXT	-21.547	-45.076	-17.451	O.co2	1	SAM301	0.000	
18	  N1	-32.788	-36.978	-18.452	N.2	1	SAM301	0.000	
19	  C2	-32.115	-37.855	-17.705	C.2	1	SAM301	0.000	
20	  N3	-31.635	-39.058	-18.051	N.2	1	SAM301	0.000	
21	  C4	-31.851	-39.305	-19.356	C.2	1	SAM301	0.000	
22	  C5	-32.544	-38.503	-20.247	C.2	1	SAM301	0.000	
23	  C6	-33.055	-37.286	-19.744	C.2	1	SAM301	0.000	
24	  N6	-33.793	-36.444	-20.461	N.pl3	1	SAM301	0.000	
25	  N7	-32.525	-39.054	-21.522	N.2	1	SAM301	0.000	
26	  C8	-31.819	-40.147	-21.376	C.2	1	SAM301	0.000	
27	  N9	-31.366	-40.355	-20.098	N.2	1	SAM301	0.000	
@<TRIPOS>BOND
1 1 2 1
2 2 3 1
3 2 5 1
4 3 4 ar
5 3 17 ar
6 5 6 1
7 6 7 1
8 7 8 1
9 7 9 1
10 9 10 1
11 10 11 1
12 10 12 1
13 11 16 1
14 12 13 1
15 12 14 1
16 14 15 1
17 14 16 1
18 16 27 1
19 18 19 ar
20 18 23 ar
21 19 20 ar
22 20 21 ar
23 21 22 ar
24 21 27 ar
25 22 23 ar
26 22 25 ar
27 23 24 1
28 25 26 ar
29 26 27 ar
@<TRIPOS>SUBSTRUCTURE
1	SAM301	1	GROUP	1 A	SAM
