# created with PyMOL 2.4.0
@<TRIPOS>MOLECULE
temp
50 52 1                 
SMALL
USER_CHARGES
@<TRIPOS>ATOM
1	   N	-22.680	-43.036	-18.647	N.4	1	SAM1	0.000	
2	  CA	-23.596	-44.100	-18.146	C.3	1	SAM1	0.000	
3	   C	-22.792	-45.221	-17.482	C.2	1	SAM1	0.000	
4	   O	-23.425	-46.168	-16.959	O.co2	1	SAM1	0.000	
5	  CB	-24.497	-44.589	-19.281	C.3	1	SAM1	0.000	
6	  CG	-25.374	-43.440	-19.718	C.3	1	SAM1	0.000	
7	  SD	-26.495	-43.914	-21.048	S.3	1	SAM1	0.000	
8	  CE	-25.563	-43.757	-22.500	C.3	1	SAM1	0.000	
9	 C5'	-27.516	-42.457	-21.190	C.3	1	SAM1	0.000	
10	 C4'	-28.501	-42.468	-20.046	C.3	1	SAM1	0.000	
11	 O4'	-29.216	-41.223	-20.199	O.3	1	SAM1	0.000	
12	 C3'	-29.560	-43.583	-20.034	C.3	1	SAM1	0.000	
13	 O3'	-29.571	-44.306	-18.807	O.3	1	SAM1	0.000	
14	 C2'	-30.893	-42.820	-20.133	C.3	1	SAM1	0.000	
15	 O2'	-31.911	-43.398	-19.331	O.3	1	SAM1	0.000	
16	 C1'	-30.494	-41.431	-19.638	C.3	1	SAM1	0.000	
17	 OXT	-21.547	-45.076	-17.451	O.co2	1	SAM1	0.000	
18	  N1	-32.788	-36.978	-18.452	N.2	1	SAM1	0.000	
19	  C2	-32.115	-37.855	-17.705	C.2	1	SAM1	0.000	
20	  N3	-31.635	-39.058	-18.051	N.2	1	SAM1	0.000	
21	  C4	-31.851	-39.305	-19.356	C.2	1	SAM1	0.000	
22	  C5	-32.544	-38.503	-20.247	C.2	1	SAM1	0.000	
23	  C6	-33.055	-37.286	-19.744	C.2	1	SAM1	0.000	
24	  N6	-33.793	-36.444	-20.461	N.pl3	1	SAM1	0.000	
25	  N7	-32.525	-39.054	-21.522	N.2	1	SAM1	0.000	
26	  C8	-31.819	-40.147	-21.376	C.2	1	SAM1	0.000	
27	  N9	-31.366	-40.355	-20.098	N.2	1	SAM1	0.000	
28	  HA	-24.254	-43.696	-17.376	 H	1	SAM1	0.000	
29	 HB1	-25.117	-45.414	-18.930	 H	1	SAM1	0.000	
30	 HB2	-23.885	-44.925	-20.118	 H	1	SAM1	0.000	
31	 HG1	-24.739	-42.625	-20.066	 H	1	SAM1	0.000	
32	 HG2	-25.963	-43.102	-18.865	 H	1	SAM1	0.000	
33	 HE1	-24.865	-44.591	-22.576	 H	1	SAM1	0.000	
34	 HE2	-25.008	-42.819	-22.476	 H	1	SAM1	0.000	
35	 HE3	-26.230	-43.762	-23.362	 H	1	SAM1	0.000	
36	  H1	-22.076	-43.420	-19.359	 H	1	SAM1	0.000	
37	  H2	-22.120	-42.687	-17.883	 H	1	SAM1	0.000	
38	  H2	-31.932	-37.555	-16.684	 H	1	SAM1	0.000	
39	  H3	-23.224	-42.280	-19.039	 H	1	SAM1	0.000	
40	  H8	-31.611	-40.825	-22.190	 H	1	SAM1	0.000	
41	 H1'	-30.543	-41.405	-18.549	 H	1	SAM1	0.000	
42	 H2'	-31.323	-42.826	-21.134	 H	1	SAM1	0.000	
43	 H2'	-31.590	-43.421	-18.427	 H	1	SAM1	0.000	
44	 H3'	-29.373	-44.303	-20.831	 H	1	SAM1	0.000	
45	 H3'	-30.272	-44.959	-18.861	 H	1	SAM1	0.000	
46	 H4'	-27.932	-42.623	-19.129	 H	1	SAM1	0.000	
47	 H61	-34.016	-36.661	-21.422	 H	1	SAM1	0.000	
48	 H62	-34.130	-35.588	-20.045	 H	1	SAM1	0.000	
49	H5'1	-28.051	-42.471	-22.140	 H	1	SAM1	0.000	
50	H5'2	-26.895	-41.563	-21.136	 H	1	SAM1	0.000	
@<TRIPOS>BOND
1 1 2 1
2 1 36 1
3 1 37 1
4 1 39 1
5 2 3 1
6 2 5 1
7 2 28 1
8 3 4 ar
9 3 17 ar
10 5 6 1
11 5 29 1
12 5 30 1
13 6 7 1
14 6 31 1
15 6 32 1
16 7 8 1
17 7 9 1
18 8 33 1
19 8 34 1
20 8 35 1
21 9 10 1
22 9 49 1
23 9 50 1
24 10 11 1
25 10 12 1
26 10 46 1
27 11 16 1
28 12 13 1
29 12 14 1
30 12 44 1
31 13 45 1
32 14 15 1
33 14 16 1
34 14 42 1
35 15 43 1
36 16 27 1
37 16 41 1
38 18 19 ar
39 18 23 ar
40 19 20 ar
41 19 38 1
42 20 21 ar
43 21 22 ar
44 21 27 ar
45 22 23 ar
46 22 25 ar
47 23 24 1
48 24 47 1
49 24 48 1
50 25 26 ar
51 26 27 ar
52 26 40 1
@<TRIPOS>SUBSTRUCTURE
1	SAM1	1	GROUP	1 A	SAM
