@<TRIPOS>MOLECULE
6NW6.B
51 53 1 0 0 
SMALL
USER_CHARGES


@<TRIPOS>ATOM
  1 N       40.1230    49.5500    20.2130 N.4   1 SAM  -0.8530 
  2 H1      40.7645    48.8781    19.8166 H     1 SAM   0.4500 
  3 H2      40.4561    50.4849    20.0254 H     1 SAM   0.4500 
  4 H3      39.2098    49.4285    19.7989 H     1 SAM   0.4500 
  5 CA      40.0340    49.3450    21.6590 C.3   1 SAM   0.3170 
  6 HA      39.3447    50.0629    22.1035 H     1 SAM   0.0800 
  7 C       41.4040    49.5990    22.2940 C.2   1 SAM   0.9060 
  8 O       41.5240    49.8380    23.4970 O.co2 1 SAM  -0.9000 
  9 CB      39.4410    47.9640    21.9760 C.3   1 SAM  -0.1600 
 10 HB1     40.2702    47.2568    21.9963 H     1 SAM   0.0800 
 11 HB2     38.7667    47.7100    21.1581 H     1 SAM   0.0800 
 12 CG      38.6610    47.7770    23.2740 C.3   1 SAM  -0.1525 
 13 HG1     38.9414    48.5946    23.9381 H     1 SAM   0.0800 
 14 HG2     38.9817    46.8300    23.7081 H     1 SAM   0.0800 
 15 SD      36.8390    47.7450    23.2000 S.3   1 SAM   0.9775 
 16 CE      36.4640    46.3670    24.3140 C.3   1 SAM  -0.2325 
 17 HE1     36.7376    46.6391    25.3334 H     1 SAM   0.0800 
 18 HE2     37.0309    45.4878    24.0080 H     1 SAM   0.0800 
 19 HE3     35.3978    46.1448    24.2710 H     1 SAM   0.0800 
 20 C5'     36.3040    47.0500    21.6140 C.3   1 SAM  -0.1525 
 21 H5'1    35.5054    46.3363    21.8162 H     1 SAM   0.0800 
 22 H5'2    37.1549    46.5286    21.1756 H     1 SAM   0.0800 
 23 C4'     35.7830    48.0540    20.5740 C.3   1 SAM   0.2000 
 24 H4'     35.5595    47.4134    19.7209 H     1 SAM   0.0800 
 25 O4'     34.6030    48.7690    20.9740 O.3   1 SAM  -0.5600 
 26 C3'     36.8060    49.1230    20.2320 C.3   1 SAM   0.2000 
 27 H3'     37.3997    49.4375    21.0903 H     1 SAM   0.0800 
 28 O3'     37.7800    48.6520    19.3050 O.3   1 SAM  -0.6800 
 29 H3'     37.3141    48.3576    18.5189 H     1 SAM   0.4000 
 30 C2'     35.9650    50.2440    19.6790 C.3   1 SAM   0.2000 
 31 H2'     36.4576    51.2158    19.7099 H     1 SAM   0.0800 
 32 O2'     35.6230    49.9970    18.3210 O.3   1 SAM  -0.6800 
 33 H2'     35.0348    50.7006    18.0372 H     1 SAM   0.4000 
 34 C1'     34.7100    50.1130    20.5230 C.3   1 SAM   0.5691 
 35 H1'     33.8744    50.4070    19.8879 H     1 SAM   0.0800 
 36 OXT     42.4270    49.5930    21.6070 O.co2 1 SAM  -0.9000 
 37 N1      34.4520    55.0590    22.1760 N.2   1 SAM  -0.6610 
 38 C2      34.5020    54.5940    20.8780 C.2   1 SAM   0.6010 
 39 H2      34.4875    55.2894    20.0518 H     1 SAM   0.0600 
 40 N3      34.5710    53.2300    20.6390 N.2   1 SAM  -0.6610 
 41 C4      34.5940    52.3720    21.6800 C.2   1 SAM   0.5000 
 42 C5      34.5550    52.8210    22.9960 C.2   1 SAM   0.4500 
 43 C6      34.4720    54.1930    23.2480 C.2   1 SAM   0.6110 
 44 N6      34.4210    54.6830    24.4930 N.2   1 SAM  -0.2000 
 45 H62     34.3613    55.6803    24.6411 H     1 SAM   0.4000 
 46 H61     34.4422    54.0553    25.2840 H     1 SAM   0.4000 
 47 N7      34.5990    51.7360    23.8040 N.2   1 SAM  -0.6960 
 48 C8      34.6650    50.6290    23.0310 C.3   1 SAM   0.4551 
 49 H81     33.7919    50.0031    23.2156 H     1 SAM   0.0800 
 50 H82     35.5697    50.0704    23.2709 H     1 SAM   0.0800 
 51 N9      34.6920    51.0010    21.7100 N.pl3 1 SAM  -0.7882 
@<TRIPOS>BOND
  1   1   2  1   
  2   1   3  1   
  3   1   4  1   
  4   1   5  1   
  5   5   6  1   
  6   5   7  1   
  7   5   9  1   
  8   7   8  ar  
  9   7  36  ar  
 10   9  10  1   
 11   9  11  1   
 12   9  12  1   
 13  12  13  1   
 14  12  14  1   
 15  12  15  1   
 16  15  16  1   
 17  15  20  1   
 18  16  17  1   
 19  16  18  1   
 20  16  19  1   
 21  20  21  1   
 22  20  22  1   
 23  20  23  1   
 24  23  24  1   
 25  23  25  1   
 26  23  26  1   
 27  25  34  1   
 28  26  27  1   
 29  26  28  1   
 30  26  30  1   
 31  28  29  1   
 32  30  31  1   
 33  30  32  1   
 34  30  34  1   
 35  32  33  1   
 36  34  35  1   
 37  34  51  1   
 38  37  38  2   
 39  37  43  1   
 40  38  39  1   
 41  38  40  1   
 42  40  41  2   
 43  41  42  1   
 44  41  51  1   
 45  42  43  1   
 46  42  47  2   
 47  43  44  2   
 48  44  45  1   
 49  44  46  1   
 50  47  48  1   
 51  48  49  1   
 52  48  50  1   
 53  48  51  1   
@<TRIPOS>SUBSTRUCTURE
  1 SAM  26 GROUP 4 B **** 0

# MOE 2022.02 (io_trps.svl 2020.11)
