# created with PyMOL 2.5.2
@<TRIPOS>MOLECULE
6NW6
27 29 1                 
SMALL
USER_CHARGES
@<TRIPOS>ATOM
1	   N	40.123	49.550	20.213	N.3	1	SAM301	0.000	
2	  CA	40.034	49.345	21.659	C.3	1	SAM301	0.000	
3	   C	41.404	49.599	22.294	C.2	1	SAM301	0.000	
4	   O	41.524	49.838	23.497	O.co2	1	SAM301	0.000	
5	  CB	39.441	47.964	21.976	C.3	1	SAM301	0.000	
6	  CG	38.661	47.777	23.274	C.3	1	SAM301	0.000	
7	  SD	36.839	47.745	23.200	S.3	1	SAM301	0.000	
8	  CE	36.464	46.367	24.314	C.3	1	SAM301	0.000	
9	 C5'	36.304	47.050	21.614	C.3	1	SAM301	0.000	
10	 C4'	35.783	48.054	20.574	C.3	1	SAM301	0.000	
11	 O4'	34.603	48.769	20.974	O.3	1	SAM301	0.000	
12	 C3'	36.806	49.123	20.232	C.3	1	SAM301	0.000	
13	 O3'	37.780	48.652	19.305	O.3	1	SAM301	0.000	
14	 C2'	35.965	50.244	19.679	C.3	1	SAM301	0.000	
15	 O2'	35.623	49.997	18.321	O.3	1	SAM301	0.000	
16	 C1'	34.710	50.113	20.523	C.3	1	SAM301	0.000	
17	 OXT	42.427	49.593	21.607	O.co2	1	SAM301	0.000	
18	  N1	34.452	55.059	22.176	N.2	1	SAM301	0.000	
19	  C2	34.502	54.594	20.878	C.2	1	SAM301	0.000	
20	  N3	34.571	53.230	20.639	N.2	1	SAM301	0.000	
21	  C4	34.594	52.372	21.680	C.2	1	SAM301	0.000	
22	  C5	34.555	52.821	22.996	C.2	1	SAM301	0.000	
23	  C6	34.472	54.193	23.248	C.2	1	SAM301	0.000	
24	  N6	34.421	54.683	24.493	N.pl3	1	SAM301	0.000	
25	  N7	34.599	51.736	23.804	N.2	1	SAM301	0.000	
26	  C8	34.665	50.629	23.031	C.2	1	SAM301	0.000	
27	  N9	34.692	51.001	21.710	N.2	1	SAM301	0.000	
@<TRIPOS>BOND
1 1 2 1
2 2 3 1
3 2 5 1
4 3 4 ar
5 3 17 ar
6 5 6 1
7 6 7 1
8 7 8 1
9 7 9 1
10 9 10 1
11 10 11 1
12 10 12 1
13 11 16 1
14 12 13 1
15 12 14 1
16 14 15 1
17 14 16 1
18 16 27 1
19 18 19 ar
20 18 23 ar
21 19 20 ar
22 20 21 ar
23 21 22 ar
24 21 27 ar
25 22 23 ar
26 22 25 ar
27 23 24 1
28 25 26 ar
29 26 27 ar
@<TRIPOS>SUBSTRUCTURE
1	SAM301	1	GROUP	1 B	SAM
