# created with PyMOL 2.5.0
@<TRIPOS>MOLECULE
3AI9
20 22 1                 
SMALL
USER_CHARGES
@<TRIPOS>ATOM
1	  CG	37.103	45.896	23.885	C.3	1	SAM501	0.000	
2	  SD	36.780	47.498	23.102	S.3	1	SAM501	0.000	
3	 C5'	35.807	46.945	21.661	C.3	1	SAM501	0.000	
4	 C4'	35.620	47.983	20.545	C.3	1	SAM501	0.000	
5	 O4'	34.544	48.864	20.845	O.3	1	SAM501	0.000	
6	 C3'	36.848	48.878	20.293	C.3	1	SAM501	0.000	
7	 O3'	37.832	48.358	19.411	O.3	1	SAM501	0.000	
8	 C2'	36.222	50.158	19.765	C.3	1	SAM501	0.000	
9	 O2'	36.051	50.080	18.357	O.3	1	SAM501	0.000	
10	 C1'	34.863	50.199	20.459	C.3	1	SAM501	0.000	
11	  N1	34.034	55.123	22.262	N.2	1	SAM501	0.000	
12	  C2	33.929	54.666	20.976	C.2	1	SAM501	0.000	
13	  N3	34.194	53.338	20.689	N.2	1	SAM501	0.000	
14	  C4	34.559	52.457	21.657	C.2	1	SAM501	0.000	
15	  C5	34.667	52.903	22.968	C.2	1	SAM501	0.000	
16	  C6	34.411	54.243	23.260	C.2	1	SAM501	0.000	
17	  N6	34.521	54.674	24.510	N.pl3	1	SAM501	0.000	
18	  N7	35.027	51.845	23.733	N.2	1	SAM501	0.000	
19	  C8	35.155	50.749	22.942	C.2	1	SAM501	0.000	
20	  N9	34.871	51.104	21.642	N.2	1	SAM501	0.000	
@<TRIPOS>BOND
1 1 2 1
2 2 3 1
3 3 4 1
4 4 5 1
5 4 6 1
6 5 10 1
7 6 7 1
8 6 8 1
9 8 9 1
10 8 10 1
11 10 20 1
12 11 12 ar
13 11 16 ar
14 12 13 ar
15 13 14 ar
16 14 15 ar
17 14 20 ar
18 15 16 ar
19 15 18 ar
20 16 17 1
21 18 19 ar
22 19 20 ar
@<TRIPOS>SUBSTRUCTURE
1	SAM501	1	GROUP	1 X	SAM
