# created with PyMOL 2.5.0
@<TRIPOS>MOLECULE
7R7O
27 29 1                 
SMALL
USER_CHARGES
@<TRIPOS>ATOM
1	   N	-3.870	-39.285	36.753	N.3	1	SAM301	0.000	
2	  CA	-4.161	-40.245	37.811	C.3	1	SAM301	0.000	
3	   C	-5.516	-39.985	38.463	C.2	1	SAM301	0.000	
4	   O	-6.031	-40.839	39.193	O.co2	1	SAM301	0.000	
5	  CB	-3.049	-40.217	38.859	C.3	1	SAM301	0.000	
6	  CG	-1.741	-40.790	38.337	C.3	1	SAM301	0.000	
7	  SD	-0.539	-40.915	39.689	S.3	1	SAM301	0.000	
8	  CE	0.109	-39.232	39.781	C.3	1	SAM301	0.000	
9	 C5'	0.929	-41.625	38.900	C.3	1	SAM301	0.000	
10	 C4'	0.826	-43.105	38.612	C.3	1	SAM301	0.000	
11	 O4'	1.916	-43.490	37.779	O.3	1	SAM301	0.000	
12	 C3'	0.907	-44.029	39.837	C.3	1	SAM301	0.000	
13	 O3'	-0.317	-44.723	39.964	O.3	1	SAM301	0.000	
14	 C2'	1.995	-45.031	39.506	C.3	1	SAM301	0.000	
15	 O2'	1.653	-46.365	39.831	O.3	1	SAM301	0.000	
16	 C1'	2.065	-44.879	38.000	C.3	1	SAM301	0.000	
17	 OXT	-6.136	-38.926	38.273	O.co2	1	SAM301	0.000	
18	  N1	3.958	-48.000	34.328	N.2	1	SAM301	0.000	
19	  C2	2.645	-47.786	34.669	C.2	1	SAM301	0.000	
20	  N3	2.326	-46.916	35.691	N.2	1	SAM301	0.000	
21	  C4	3.319	-46.268	36.357	C.2	1	SAM301	0.000	
22	  C5	4.653	-46.483	36.037	C.2	1	SAM301	0.000	
23	  C6	4.972	-47.357	35.005	C.2	1	SAM301	0.000	
24	  N6	6.233	-47.603	34.643	N.pl3	1	SAM301	0.000	
25	  N7	5.410	-45.689	36.855	N.2	1	SAM301	0.000	
26	  C8	4.590	-45.029	37.694	C.2	1	SAM301	0.000	
27	  N9	3.293	-45.372	37.388	N.2	1	SAM301	0.000	
@<TRIPOS>BOND
1 1 2 1
2 2 3 1
3 2 5 1
4 3 4 ar
5 3 17 ar
6 5 6 1
7 6 7 1
8 7 8 1
9 7 9 1
10 9 10 1
11 10 11 1
12 10 12 1
13 11 16 1
14 12 13 1
15 12 14 1
16 14 15 1
17 14 16 1
18 16 27 1
19 18 19 ar
20 18 23 ar
21 19 20 ar
22 20 21 ar
23 21 22 ar
24 21 27 ar
25 22 23 ar
26 22 25 ar
27 23 24 1
28 25 26 ar
29 26 27 ar
@<TRIPOS>SUBSTRUCTURE
1	SAM301	1	GROUP	1 A	SAM
