@<TRIPOS>MOLECULE
7R7O.A
51 53 1 0 0 
SMALL
USER_CHARGES


@<TRIPOS>ATOM
  1 N       -3.8700   -39.2850    36.7530 N.4   1 SAM  -0.8530 
  2 H1      -3.8216   -38.3557    37.1456 H     1 SAM   0.4500 
  3 H2      -4.6013   -39.3189    36.0572 H     1 SAM   0.4500 
  4 H3      -2.9855   -39.5154    36.3233 H     1 SAM   0.4500 
  5 CA      -4.1610   -40.2450    37.8110 C.3   1 SAM   0.3170 
  6 HA      -4.2069   -41.2354    37.3582 H     1 SAM   0.0800 
  7 C       -5.5160   -39.9850    38.4630 C.2   1 SAM   0.9060 
  8 O       -6.0310   -40.8390    39.1930 O.co2 1 SAM  -0.9000 
  9 CB      -3.0490   -40.2170    38.8590 C.3   1 SAM  -0.1600 
 10 HB1     -3.3672   -40.8023    39.7217 H     1 SAM   0.0800 
 11 HB2     -2.8812   -39.1837    39.1628 H     1 SAM   0.0800 
 12 CG      -1.7410   -40.7900    38.3370 C.3   1 SAM  -0.1525 
 13 HG1     -1.3445   -40.1363    37.5601 H     1 SAM   0.0800 
 14 HG2     -1.9212   -41.7811    37.9207 H     1 SAM   0.0800 
 15 SD      -0.5390   -40.9150    39.6890 S.3   1 SAM   0.9775 
 16 CE       0.1090   -39.2320    39.7810 C.3   1 SAM  -0.2325 
 17 HE1     -0.6332   -38.5817    40.2441 H     1 SAM   0.0800 
 18 HE2      0.3305   -38.8725    38.7761 H     1 SAM   0.0800 
 19 HE3      1.0208   -39.2258    40.3783 H     1 SAM   0.0800 
 20 C5'      0.9290   -41.6250    38.9000 C.3   1 SAM  -0.1525 
 21 H5'1     1.7822   -41.4640    39.5589 H     1 SAM   0.0800 
 22 H5'2     1.0951   -41.1045    37.9568 H     1 SAM   0.0800 
 23 C4'      0.8260   -43.1050    38.6120 C.3   1 SAM   0.2000 
 24 H4'     -0.1601   -43.2249    38.1632 H     1 SAM   0.0800 
 25 O4'      1.9160   -43.4900    37.7790 O.3   1 SAM  -0.5600 
 26 C3'      0.9070   -44.0290    39.8370 C.3   1 SAM   0.2000 
 27 H3'      1.1072   -43.4810    40.7577 H     1 SAM   0.0800 
 28 O3'     -0.3170   -44.7230    39.9640 O.3   1 SAM  -0.6800 
 29 H3'     -0.2318   -45.3288    40.7038 H     1 SAM   0.4000 
 30 C2'      1.9950   -45.0310    39.5060 C.3   1 SAM   0.2000 
 31 H2'      2.9173   -44.8478    40.0572 H     1 SAM   0.0800 
 32 O2'      1.6530   -46.3650    39.8310 O.3   1 SAM  -0.6800 
 33 H2'      0.8401   -46.5776    39.3666 H     1 SAM   0.4000 
 34 C1'      2.0650   -44.8790    38.0000 C.3   1 SAM   0.5691 
 35 H1'      1.2914   -45.4878    37.5320 H     1 SAM   0.0800 
 36 OXT     -6.1360   -38.9260    38.2730 O.co2 1 SAM  -0.9000 
 37 N1       3.9580   -48.0000    34.3280 N.2   1 SAM  -0.6610 
 38 C2       2.6450   -47.7860    34.6690 C.2   1 SAM   0.6010 
 39 H2       1.8596   -48.3005    34.1353 H     1 SAM   0.0600 
 40 N3       2.3260   -46.9160    35.6910 N.2   1 SAM  -0.6610 
 41 C4       3.3190   -46.2680    36.3570 C.2   1 SAM   0.5000 
 42 C5       4.6530   -46.4830    36.0370 C.2   1 SAM   0.4500 
 43 C6       4.9720   -47.3570    35.0050 C.2   1 SAM   0.6110 
 44 N6       6.2330   -47.6030    34.6430 N.2   1 SAM  -0.2000 
 45 H62      6.4254   -48.2450    33.8874 H     1 SAM   0.4000 
 46 H61      6.9948   -47.1471    35.1246 H     1 SAM   0.4000 
 47 N7       5.4100   -45.6890    36.8550 N.2   1 SAM  -0.6960 
 48 C8       4.5900   -45.0290    37.6940 C.3   1 SAM   0.4551 
 49 H81      4.7256   -43.9543    37.5727 H     1 SAM   0.0800 
 50 H82      4.8125   -45.3094    38.7236 H     1 SAM   0.0800 
 51 N9       3.2930   -45.3720    37.3880 N.pl3 1 SAM  -0.7882 
@<TRIPOS>BOND
  1   1   2  1   
  2   1   3  1   
  3   1   4  1   
  4   1   5  1   
  5   5   6  1   
  6   5   7  1   
  7   5   9  1   
  8   7   8  ar  
  9   7  36  ar  
 10   9  10  1   
 11   9  11  1   
 12   9  12  1   
 13  12  13  1   
 14  12  14  1   
 15  12  15  1   
 16  15  16  1   
 17  15  20  1   
 18  16  17  1   
 19  16  18  1   
 20  16  19  1   
 21  20  21  1   
 22  20  22  1   
 23  20  23  1   
 24  23  24  1   
 25  23  25  1   
 26  23  26  1   
 27  25  34  1   
 28  26  27  1   
 29  26  28  1   
 30  26  30  1   
 31  28  29  1   
 32  30  31  1   
 33  30  32  1   
 34  30  34  1   
 35  32  33  1   
 36  34  35  1   
 37  34  51  1   
 38  37  38  2   
 39  37  43  1   
 40  38  39  1   
 41  38  40  1   
 42  40  41  2   
 43  41  42  1   
 44  41  51  1   
 45  42  43  1   
 46  42  47  2   
 47  43  44  2   
 48  44  45  1   
 49  44  46  1   
 50  47  48  1   
 51  48  49  1   
 52  48  50  1   
 53  48  51  1   
@<TRIPOS>SUBSTRUCTURE
  1 SAM  23 GROUP 4 A **** 0

# MOE 2022.02 (io_trps.svl 2020.11)
