# created with PyMOL 2.4.0
@<TRIPOS>MOLECULE
temp
50 52 1                 
SMALL
USER_CHARGES
@<TRIPOS>ATOM
1	   N	-3.870	-39.285	36.753	N.4	1	SAM1	0.000	
2	  CA	-4.161	-40.245	37.811	C.3	1	SAM1	0.000	
3	   C	-5.516	-39.985	38.463	C.2	1	SAM1	0.000	
4	   O	-6.031	-40.839	39.193	O.co2	1	SAM1	0.000	
5	  CB	-3.049	-40.217	38.859	C.3	1	SAM1	0.000	
6	  CG	-1.741	-40.790	38.337	C.3	1	SAM1	0.000	
7	  SD	-0.539	-40.915	39.689	S.3	1	SAM1	0.000	
8	  CE	0.109	-39.232	39.781	C.3	1	SAM1	0.000	
9	 C5'	0.929	-41.625	38.900	C.3	1	SAM1	0.000	
10	 C4'	0.826	-43.105	38.612	C.3	1	SAM1	0.000	
11	 O4'	1.916	-43.490	37.779	O.3	1	SAM1	0.000	
12	 C3'	0.907	-44.029	39.837	C.3	1	SAM1	0.000	
13	 O3'	-0.317	-44.723	39.964	O.3	1	SAM1	0.000	
14	 C2'	1.995	-45.031	39.506	C.3	1	SAM1	0.000	
15	 O2'	1.653	-46.365	39.831	O.3	1	SAM1	0.000	
16	 C1'	2.065	-44.879	38.000	C.3	1	SAM1	0.000	
17	 OXT	-6.136	-38.926	38.273	O.co2	1	SAM1	0.000	
18	  N1	3.958	-48.000	34.328	N.2	1	SAM1	0.000	
19	  C2	2.645	-47.786	34.669	C.2	1	SAM1	0.000	
20	  N3	2.326	-46.916	35.691	N.2	1	SAM1	0.000	
21	  C4	3.319	-46.268	36.357	C.2	1	SAM1	0.000	
22	  C5	4.653	-46.483	36.037	C.2	1	SAM1	0.000	
23	  C6	4.972	-47.357	35.005	C.2	1	SAM1	0.000	
24	  N6	6.233	-47.603	34.643	N.pl3	1	SAM1	0.000	
25	  N7	5.410	-45.689	36.855	N.2	1	SAM1	0.000	
26	  C8	4.590	-45.029	37.694	C.2	1	SAM1	0.000	
27	  N9	3.293	-45.372	37.388	N.2	1	SAM1	0.000	
28	  HA	-4.207	-41.235	37.358	 H	1	SAM1	0.000	
29	 HB1	-3.367	-40.802	39.722	 H	1	SAM1	0.000	
30	 HB2	-2.881	-39.184	39.163	 H	1	SAM1	0.000	
31	 HG1	-1.344	-40.136	37.560	 H	1	SAM1	0.000	
32	 HG2	-1.921	-41.781	37.921	 H	1	SAM1	0.000	
33	 HE1	-0.633	-38.582	40.244	 H	1	SAM1	0.000	
34	 HE2	0.331	-38.873	38.776	 H	1	SAM1	0.000	
35	 HE3	1.021	-39.226	40.378	 H	1	SAM1	0.000	
36	  H1	-3.822	-38.356	37.146	 H	1	SAM1	0.000	
37	  H2	-4.601	-39.319	36.057	 H	1	SAM1	0.000	
38	  H2	1.860	-48.300	34.135	 H	1	SAM1	0.000	
39	  H3	-2.986	-39.515	36.323	 H	1	SAM1	0.000	
40	  H8	4.897	-44.347	38.473	 H	1	SAM1	0.000	
41	 H1'	1.291	-45.488	37.532	 H	1	SAM1	0.000	
42	 H2'	2.917	-44.848	40.057	 H	1	SAM1	0.000	
43	 H2'	0.840	-46.578	39.367	 H	1	SAM1	0.000	
44	 H3'	1.107	-43.481	40.758	 H	1	SAM1	0.000	
45	 H3'	-0.232	-45.329	40.704	 H	1	SAM1	0.000	
46	 H4'	-0.160	-43.225	38.163	 H	1	SAM1	0.000	
47	 H61	6.995	-47.147	35.125	 H	1	SAM1	0.000	
48	 H62	6.425	-48.245	33.887	 H	1	SAM1	0.000	
49	H5'1	1.782	-41.464	39.559	 H	1	SAM1	0.000	
50	H5'2	1.095	-41.104	37.957	 H	1	SAM1	0.000	
@<TRIPOS>BOND
1 1 2 1
2 1 36 1
3 1 37 1
4 1 39 1
5 2 3 1
6 2 5 1
7 2 28 1
8 3 4 ar
9 3 17 ar
10 5 6 1
11 5 29 1
12 5 30 1
13 6 7 1
14 6 31 1
15 6 32 1
16 7 8 1
17 7 9 1
18 8 33 1
19 8 34 1
20 8 35 1
21 9 10 1
22 9 49 1
23 9 50 1
24 10 11 1
25 10 12 1
26 10 46 1
27 11 16 1
28 12 13 1
29 12 14 1
30 12 44 1
31 13 45 1
32 14 15 1
33 14 16 1
34 14 42 1
35 15 43 1
36 16 27 1
37 16 41 1
38 18 19 ar
39 18 23 ar
40 19 20 ar
41 19 38 1
42 20 21 ar
43 21 22 ar
44 21 27 ar
45 22 23 ar
46 22 25 ar
47 23 24 1
48 24 47 1
49 24 48 1
50 25 26 ar
51 26 27 ar
52 26 40 1
@<TRIPOS>SUBSTRUCTURE
1	SAM1	1	GROUP	1 A	SAM
