@<TRIPOS>MOLECULE
5KQR.A
51 53 1 0 0 
SMALL
USER_CHARGES


@<TRIPOS>ATOM
  1 N       12.6260     4.9350     6.7230 N.4   1 SAM  -0.8530 
  2 H1      12.4302     4.6201     7.6625 H     1 SAM   0.4500 
  3 H2      13.2959     5.6902     6.7538 H     1 SAM   0.4500 
  4 H3      13.0056     4.1700     6.1838 H     1 SAM   0.4500 
  5 CA      11.3900     5.4050     6.0990 C.3   1 SAM   0.3170 
  6 HA      11.6517     5.7323     5.0928 H     1 SAM   0.0800 
  7 C       10.8110     6.5770     6.8590 C.2   1 SAM   0.9060 
  8 O       11.3320     6.9530     7.9260 O.co2 1 SAM  -0.9000 
  9 CB      10.3530     4.2980     5.9630 C.3   1 SAM  -0.1600 
 10 HB1      9.4264     4.7217     5.5757 H     1 SAM   0.0800 
 11 HB2     10.1694     3.8577     6.9431 H     1 SAM   0.0800 
 12 CG      10.8450     3.2080     5.0070 C.3   1 SAM  -0.1525 
 13 HG1     11.7061     2.7215     5.4652 H     1 SAM   0.0800 
 14 HG2     11.1509     3.6880     4.0774 H     1 SAM   0.0800 
 15 SD       9.6300     1.9300     4.6030 S.3   1 SAM   0.9775 
 16 CE       9.9350     0.7850     5.9760 C.3   1 SAM  -0.2325 
 17 HE1      9.4313     1.1491     6.8714 H     1 SAM   0.0800 
 18 HE2     11.0068     0.7195     6.1632 H     1 SAM   0.0800 
 19 HE3      9.5502    -0.2018     5.7185 H     1 SAM   0.0800 
 20 C5'     10.5450     1.1330     3.2570 C.3   1 SAM  -0.1525 
 21 H5'1    10.1779     0.1136     3.1383 H     1 SAM   0.0800 
 22 H5'2    11.6033     1.1101     3.5171 H     1 SAM   0.0800 
 23 C4'     10.3810     1.8690     1.9380 C.3   1 SAM   0.2000 
 24 H4'     10.6360     2.9184     2.0861 H     1 SAM   0.0800 
 25 O4'     11.2050     1.1990     1.0040 O.3   1 SAM  -0.5600 
 26 C3'      8.9510     1.7930     1.4030 C.3   1 SAM   0.2000 
 27 H3'      8.2604     1.3632     2.1286 H     1 SAM   0.0800 
 28 O3'      8.4510     3.0830     1.1050 O.3   1 SAM  -0.6800 
 29 H3'      7.5687     2.9757     0.7422 H     1 SAM   0.4000 
 30 C2'      9.0660     0.9530     0.1390 C.3   1 SAM   0.2000 
 31 H2'      8.7755    -0.0864     0.2916 H     1 SAM   0.0800 
 32 O2'      8.2320     1.4180    -0.8990 O.3   1 SAM  -0.6800 
 33 H2'      8.4585     2.3362    -1.0641 H     1 SAM   0.4000 
 34 C1'     10.5160     1.1880    -0.2350 C.3   1 SAM   0.5691 
 35 H1'     10.6235     2.1127    -0.8020 H     1 SAM   0.0800 
 36 OXT      9.8410     7.2020     6.3920 O.co2 1 SAM  -0.9000 
 37 N1      13.7170     0.1740    -4.1520 N.2   1 SAM  -0.6610 
 38 C2      13.4300     1.3810    -3.5590 C.2   1 SAM   0.6010 
 39 H2      13.9181     2.2775    -3.9118 H     1 SAM   0.0600 
 40 N3      12.5370     1.4610    -2.5310 N.2   1 SAM  -0.6610 
 41 C4      11.9610     0.3200    -2.0880 C.2   1 SAM   0.5000 
 42 C5      12.2410    -0.8990    -2.6620 C.2   1 SAM   0.4500 
 43 C6      13.1420    -0.9740    -3.7020 C.2   1 SAM   0.6110 
 44 N6      13.4510    -2.1410    -4.3020 N.2   1 SAM  -0.2000 
 45 H62     14.1163    -2.1576    -5.0617 H     1 SAM   0.4000 
 46 H61     13.0172    -2.9987    -3.9918 H     1 SAM   0.4000 
 47 N7      11.5120    -1.8250    -1.9970 N.2   1 SAM  -0.6960 
 48 C8      10.7840    -1.2210    -1.0390 C.3   1 SAM   0.4551 
 49 H81     11.0598    -1.6125    -0.0598 H     1 SAM   0.0800 
 50 H82      9.7222    -1.3946    -1.2137 H     1 SAM   0.0800 
 51 N9      11.0580     0.1380    -1.1000 N.pl3 1 SAM  -0.7882 
@<TRIPOS>BOND
  1   1   2  1   
  2   1   3  1   
  3   1   4  1   
  4   1   5  1   
  5   5   6  1   
  6   5   7  1   
  7   5   9  1   
  8   7   8  ar  
  9   7  36  ar  
 10   9  10  1   
 11   9  11  1   
 12   9  12  1   
 13  12  13  1   
 14  12  14  1   
 15  12  15  1   
 16  15  16  1   
 17  15  20  1   
 18  16  17  1   
 19  16  18  1   
 20  16  19  1   
 21  20  21  1   
 22  20  22  1   
 23  20  23  1   
 24  23  24  1   
 25  23  25  1   
 26  23  26  1   
 27  25  34  1   
 28  26  27  1   
 29  26  28  1   
 30  26  30  1   
 31  28  29  1   
 32  30  31  1   
 33  30  32  1   
 34  30  34  1   
 35  32  33  1   
 36  34  35  1   
 37  34  51  1   
 38  37  38  2   
 39  37  43  1   
 40  38  39  1   
 41  38  40  1   
 42  40  41  2   
 43  41  42  1   
 44  41  51  1   
 45  42  43  1   
 46  42  47  2   
 47  43  44  2   
 48  44  45  1   
 49  44  46  1   
 50  47  48  1   
 51  48  49  1   
 52  48  50  1   
 53  48  51  1   
@<TRIPOS>SUBSTRUCTURE
  1 SAM  25 GROUP 4 A **** 0

# MOE 2022.02 (io_trps.svl 2020.11)
