# created with PyMOL 2.4.0
@<TRIPOS>MOLECULE
temp
50 52 1                 
SMALL
USER_CHARGES
@<TRIPOS>ATOM
1	   N	12.626	4.935	6.723	N.4	1	SAM1	0.000	
2	  CA	11.390	5.405	6.099	C.3	1	SAM1	0.000	
3	   C	10.811	6.577	6.859	C.2	1	SAM1	0.000	
4	   O	11.332	6.953	7.926	O.co2	1	SAM1	0.000	
5	  CB	10.353	4.298	5.963	C.3	1	SAM1	0.000	
6	  CG	10.845	3.208	5.007	C.3	1	SAM1	0.000	
7	  SD	9.630	1.930	4.603	S.3	1	SAM1	0.000	
8	  CE	9.935	0.785	5.976	C.3	1	SAM1	0.000	
9	 C5'	10.545	1.133	3.257	C.3	1	SAM1	0.000	
10	 C4'	10.381	1.869	1.938	C.3	1	SAM1	0.000	
11	 O4'	11.205	1.199	1.004	O.3	1	SAM1	0.000	
12	 C3'	8.951	1.793	1.403	C.3	1	SAM1	0.000	
13	 O3'	8.451	3.083	1.105	O.3	1	SAM1	0.000	
14	 C2'	9.066	0.953	0.139	C.3	1	SAM1	0.000	
15	 O2'	8.232	1.418	-0.899	O.3	1	SAM1	0.000	
16	 C1'	10.516	1.188	-0.235	C.3	1	SAM1	0.000	
17	 OXT	9.841	7.202	6.392	O.co2	1	SAM1	0.000	
18	  N1	13.717	0.174	-4.152	N.2	1	SAM1	0.000	
19	  C2	13.430	1.381	-3.559	C.2	1	SAM1	0.000	
20	  N3	12.537	1.461	-2.531	N.2	1	SAM1	0.000	
21	  C4	11.961	0.320	-2.088	C.2	1	SAM1	0.000	
22	  C5	12.241	-0.899	-2.662	C.2	1	SAM1	0.000	
23	  C6	13.142	-0.974	-3.702	C.2	1	SAM1	0.000	
24	  N6	13.451	-2.141	-4.302	N.pl3	1	SAM1	0.000	
25	  N7	11.512	-1.825	-1.997	N.2	1	SAM1	0.000	
26	  C8	10.784	-1.221	-1.039	C.2	1	SAM1	0.000	
27	  N9	11.058	0.138	-1.100	N.2	1	SAM1	0.000	
28	  HA	11.652	5.732	5.093	 H	1	SAM1	0.000	
29	 HB1	9.426	4.722	5.576	 H	1	SAM1	0.000	
30	 HB2	10.169	3.858	6.943	 H	1	SAM1	0.000	
31	 HG1	11.706	2.721	5.465	 H	1	SAM1	0.000	
32	 HG2	11.151	3.688	4.077	 H	1	SAM1	0.000	
33	 HE1	9.431	1.149	6.871	 H	1	SAM1	0.000	
34	 HE2	11.007	0.720	6.163	 H	1	SAM1	0.000	
35	 HE3	9.550	-0.202	5.719	 H	1	SAM1	0.000	
36	  H1	12.430	4.620	7.662	 H	1	SAM1	0.000	
37	  H2	13.296	5.690	6.754	 H	1	SAM1	0.000	
38	  H2	13.918	2.277	-3.912	 H	1	SAM1	0.000	
39	  H3	13.006	4.170	6.184	 H	1	SAM1	0.000	
40	  H8	10.110	-1.706	-0.349	 H	1	SAM1	0.000	
41	 H1'	10.623	2.113	-0.802	 H	1	SAM1	0.000	
42	 H2'	8.776	-0.086	0.292	 H	1	SAM1	0.000	
43	 H2'	8.458	2.336	-1.064	 H	1	SAM1	0.000	
44	 H3'	8.260	1.363	2.129	 H	1	SAM1	0.000	
45	 H3'	7.569	2.976	0.742	 H	1	SAM1	0.000	
46	 H4'	10.636	2.918	2.086	 H	1	SAM1	0.000	
47	 H61	13.017	-2.999	-3.992	 H	1	SAM1	0.000	
48	 H62	14.116	-2.158	-5.062	 H	1	SAM1	0.000	
49	H5'1	10.178	0.114	3.138	 H	1	SAM1	0.000	
50	H5'2	11.603	1.110	3.517	 H	1	SAM1	0.000	
@<TRIPOS>BOND
1 1 2 1
2 1 36 1
3 1 37 1
4 1 39 1
5 2 3 1
6 2 5 1
7 2 28 1
8 3 4 ar
9 3 17 ar
10 5 6 1
11 5 29 1
12 5 30 1
13 6 7 1
14 6 31 1
15 6 32 1
16 7 8 1
17 7 9 1
18 8 33 1
19 8 34 1
20 8 35 1
21 9 10 1
22 9 49 1
23 9 50 1
24 10 11 1
25 10 12 1
26 10 46 1
27 11 16 1
28 12 13 1
29 12 14 1
30 12 44 1
31 13 45 1
32 14 15 1
33 14 16 1
34 14 42 1
35 15 43 1
36 16 27 1
37 16 41 1
38 18 19 ar
39 18 23 ar
40 19 20 ar
41 19 38 1
42 20 21 ar
43 21 22 ar
44 21 27 ar
45 22 23 ar
46 22 25 ar
47 23 24 1
48 24 47 1
49 24 48 1
50 25 26 ar
51 26 27 ar
52 26 40 1
@<TRIPOS>SUBSTRUCTURE
1	SAM1	1	GROUP	1 A	SAM
