# created with PyMOL 2.5.0
@<TRIPOS>MOLECULE
5KQR
27 29 1                 
SMALL
USER_CHARGES
@<TRIPOS>ATOM
1	   N	12.626	4.935	6.723	N.3	1	SAM301	0.000	
2	  CA	11.390	5.405	6.099	C.3	1	SAM301	0.000	
3	   C	10.811	6.577	6.859	C.2	1	SAM301	0.000	
4	   O	11.332	6.953	7.926	O.co2	1	SAM301	0.000	
5	  CB	10.353	4.298	5.963	C.3	1	SAM301	0.000	
6	  CG	10.845	3.208	5.007	C.3	1	SAM301	0.000	
7	  SD	9.630	1.930	4.603	S.3	1	SAM301	0.000	
8	  CE	9.935	0.785	5.976	C.3	1	SAM301	0.000	
9	 C5'	10.545	1.133	3.257	C.3	1	SAM301	0.000	
10	 C4'	10.381	1.869	1.938	C.3	1	SAM301	0.000	
11	 O4'	11.205	1.199	1.004	O.3	1	SAM301	0.000	
12	 C3'	8.951	1.793	1.403	C.3	1	SAM301	0.000	
13	 O3'	8.451	3.083	1.105	O.3	1	SAM301	0.000	
14	 C2'	9.066	0.953	0.139	C.3	1	SAM301	0.000	
15	 O2'	8.232	1.418	-0.899	O.3	1	SAM301	0.000	
16	 C1'	10.516	1.188	-0.235	C.3	1	SAM301	0.000	
17	 OXT	9.841	7.202	6.392	O.co2	1	SAM301	0.000	
18	  N1	13.717	0.174	-4.152	N.2	1	SAM301	0.000	
19	  C2	13.430	1.381	-3.559	C.2	1	SAM301	0.000	
20	  N3	12.537	1.461	-2.531	N.2	1	SAM301	0.000	
21	  C4	11.961	0.320	-2.088	C.2	1	SAM301	0.000	
22	  C5	12.241	-0.899	-2.662	C.2	1	SAM301	0.000	
23	  C6	13.142	-0.974	-3.702	C.2	1	SAM301	0.000	
24	  N6	13.451	-2.141	-4.302	N.pl3	1	SAM301	0.000	
25	  N7	11.512	-1.825	-1.997	N.2	1	SAM301	0.000	
26	  C8	10.784	-1.221	-1.039	C.2	1	SAM301	0.000	
27	  N9	11.058	0.138	-1.100	N.2	1	SAM301	0.000	
@<TRIPOS>BOND
1 1 2 1
2 2 3 1
3 2 5 1
4 3 4 ar
5 3 17 ar
6 5 6 1
7 6 7 1
8 7 8 1
9 7 9 1
10 9 10 1
11 10 11 1
12 10 12 1
13 11 16 1
14 12 13 1
15 12 14 1
16 14 15 1
17 14 16 1
18 16 27 1
19 18 19 ar
20 18 23 ar
21 19 20 ar
22 20 21 ar
23 21 22 ar
24 21 27 ar
25 22 23 ar
26 22 25 ar
27 23 24 1
28 25 26 ar
29 26 27 ar
@<TRIPOS>SUBSTRUCTURE
1	SAM301	1	GROUP	1 A	SAM
