@<TRIPOS>MOLECULE
4IV0.A
51 53 1 0 0 
SMALL
USER_CHARGES


@<TRIPOS>ATOM
  1 N       -4.5140   -23.6660    -9.8750 N.4   1 SAM  -0.8530 
  2 H1      -4.2915   -22.7304   -10.1836 H     1 SAM   0.4500 
  3 H2      -5.1202   -24.1083   -10.5510 H     1 SAM   0.4500 
  4 H3      -3.6628   -24.2021    -9.7847 H     1 SAM   0.4500 
  5 CA      -5.1930   -23.6040    -8.5760 C.3   1 SAM   0.3170 
  6 HA      -5.4282   -24.6181    -8.2528 H     1 SAM   0.0800 
  7 C       -6.4820   -22.8160    -8.7150 C.2   1 SAM   0.9060 
  8 O       -6.7210   -22.2050    -9.7580 O.co2 1 SAM  -0.9000 
  9 CB      -4.2890   -22.9810    -7.5150 C.3   1 SAM  -0.1600 
 10 HB1     -3.3591   -23.5491    -7.4920 H     1 SAM   0.0800 
 11 HB2     -4.7926   -23.0694    -6.5524 H     1 SAM   0.0800 
 12 CG      -3.9350   -21.5100    -7.7260 C.3   1 SAM  -0.1525 
 13 HG1     -4.8579   -20.9350    -7.8023 H     1 SAM   0.0800 
 14 HG2     -3.3702   -21.4151    -8.6534 H     1 SAM   0.0800 
 15 SD      -2.9430   -20.8400    -6.3700 S.3   1 SAM   0.9775 
 16 CE      -3.0970   -19.0660    -6.6780 C.3   1 SAM  -0.2325 
 17 HE1     -4.0999   -18.7360    -6.4072 H     1 SAM   0.0800 
 18 HE2     -2.9209   -18.8640    -7.7345 H     1 SAM   0.0800 
 19 HE3     -2.3631   -18.5280    -6.0780 H     1 SAM   0.0800 
 20 C5'     -1.2390   -21.1790    -6.8750 C.3   1 SAM  -0.1525 
 21 H5'1    -0.5731   -20.4805    -6.3683 H     1 SAM   0.0800 
 22 H5'2    -1.1549   -21.0439    -7.9533 H     1 SAM   0.0800 
 23 C4'     -0.8280   -22.6020    -6.5200 C.3   1 SAM   0.2000 
 24 H4'     -1.5634   -23.2508    -6.9957 H     1 SAM   0.0800 
 25 O4'      0.4860   -22.8510    -6.9730 O.3   1 SAM  -0.5600 
 26 C3'     -0.8180   -22.8600    -5.0170 C.3   1 SAM   0.2000 
 27 H3'     -1.1360   -22.0125    -4.4098 H     1 SAM   0.0800 
 28 O3'     -1.7170   -23.9120    -4.7320 O.3   1 SAM  -0.6800 
 29 H3'     -1.6540   -24.1013    -3.7930 H     1 SAM   0.4000 
 30 C2'      0.6270   -23.2290    -4.7160 C.3   1 SAM   0.2000 
 31 H2'      1.1981   -22.3858    -4.3275 H     1 SAM   0.0800 
 32 O2'      0.7970   -24.1880    -3.6960 O.3   1 SAM  -0.6800 
 33 H2'      1.7377   -24.3610    -3.6141 H     1 SAM   0.4000 
 34 C1'      1.0740   -23.7600    -6.0610 C.3   1 SAM   0.5691 
 35 H1'      0.7701   -24.7992    -6.1869 H     1 SAM   0.0800 
 36 OXT     -7.3060   -22.7890    -7.7990 O.co2 1 SAM  -0.9000 
 37 N1       5.0750   -26.6700    -7.6900 N.2   1 SAM  -0.6610 
 38 C2       3.7400   -27.0080    -7.6520 C.2   1 SAM   0.6010 
 39 H2       3.4186   -27.9807    -7.9939 H     1 SAM   0.0600 
 40 N3       2.8150   -26.1030    -7.1770 N.2   1 SAM  -0.6610 
 41 C4       3.2190   -24.8780    -6.7660 C.2   1 SAM   0.5000 
 42 C5       4.5610   -24.5240    -6.8060 C.2   1 SAM   0.4500 
 43 C6       5.5020   -25.4310    -7.2820 C.2   1 SAM   0.6110 
 44 N6       6.8060   -25.1270    -7.3260 N.2   1 SAM  -0.2000 
 45 H62      7.4705   -25.8024    -7.6759 H     1 SAM   0.4000 
 46 H61      7.1246   -24.2224    -7.0093 H     1 SAM   0.4000 
 47 N7       4.6640   -23.2600    -6.3350 N.2   1 SAM  -0.6960 
 48 C8       3.4320   -22.8140    -5.9900 C.3   1 SAM   0.4551 
 49 H81      3.1830   -21.9285    -6.5749 H     1 SAM   0.0800 
 50 H82      3.4133   -22.5656    -4.9288 H     1 SAM   0.0800 
 51 N9       2.5280   -23.8100    -6.2490 N.pl3 1 SAM  -0.7882 
@<TRIPOS>BOND
  1   1   2  1   
  2   1   3  1   
  3   1   4  1   
  4   1   5  1   
  5   5   6  1   
  6   5   7  1   
  7   5   9  1   
  8   7   8  ar  
  9   7  36  ar  
 10   9  10  1   
 11   9  11  1   
 12   9  12  1   
 13  12  13  1   
 14  12  14  1   
 15  12  15  1   
 16  15  16  1   
 17  15  20  1   
 18  16  17  1   
 19  16  18  1   
 20  16  19  1   
 21  20  21  1   
 22  20  22  1   
 23  20  23  1   
 24  23  24  1   
 25  23  25  1   
 26  23  26  1   
 27  25  34  1   
 28  26  27  1   
 29  26  28  1   
 30  26  30  1   
 31  28  29  1   
 32  30  31  1   
 33  30  32  1   
 34  30  34  1   
 35  32  33  1   
 36  34  35  1   
 37  34  51  1   
 38  37  38  2   
 39  37  43  1   
 40  38  39  1   
 41  38  40  1   
 42  40  41  2   
 43  41  42  1   
 44  41  51  1   
 45  42  43  1   
 46  42  47  2   
 47  43  44  2   
 48  44  45  1   
 49  44  46  1   
 50  47  48  1   
 51  48  49  1   
 52  48  50  1   
 53  48  51  1   
@<TRIPOS>SUBSTRUCTURE
  1 SAM  25 GROUP 4 A **** 0

# MOE 2022.02 (io_trps.svl 2020.11)
