# created with PyMOL 2.5.0
@<TRIPOS>MOLECULE
4IV0
27 29 1                 
SMALL
USER_CHARGES
@<TRIPOS>ATOM
1	   N	-4.514	-23.666	-9.875	N.3	1	SAM302	0.000	
2	  CA	-5.193	-23.604	-8.576	C.3	1	SAM302	0.000	
3	   C	-6.482	-22.816	-8.715	C.2	1	SAM302	0.000	
4	   O	-6.721	-22.205	-9.758	O.co2	1	SAM302	0.000	
5	  CB	-4.289	-22.981	-7.515	C.3	1	SAM302	0.000	
6	  CG	-3.935	-21.510	-7.726	C.3	1	SAM302	0.000	
7	  SD	-2.943	-20.840	-6.370	S.3	1	SAM302	0.000	
8	  CE	-3.097	-19.066	-6.678	C.3	1	SAM302	0.000	
9	 C5'	-1.239	-21.179	-6.875	C.3	1	SAM302	0.000	
10	 C4'	-0.828	-22.602	-6.520	C.3	1	SAM302	0.000	
11	 O4'	0.486	-22.851	-6.973	O.3	1	SAM302	0.000	
12	 C3'	-0.818	-22.860	-5.017	C.3	1	SAM302	0.000	
13	 O3'	-1.717	-23.912	-4.732	O.3	1	SAM302	0.000	
14	 C2'	0.627	-23.229	-4.716	C.3	1	SAM302	0.000	
15	 O2'	0.797	-24.188	-3.696	O.3	1	SAM302	0.000	
16	 C1'	1.074	-23.760	-6.061	C.3	1	SAM302	0.000	
17	 OXT	-7.306	-22.789	-7.799	O.co2	1	SAM302	0.000	
18	  N1	5.075	-26.670	-7.690	N.2	1	SAM302	0.000	
19	  C2	3.740	-27.008	-7.652	C.2	1	SAM302	0.000	
20	  N3	2.815	-26.103	-7.177	N.2	1	SAM302	0.000	
21	  C4	3.219	-24.878	-6.766	C.2	1	SAM302	0.000	
22	  C5	4.561	-24.524	-6.806	C.2	1	SAM302	0.000	
23	  C6	5.502	-25.431	-7.282	C.2	1	SAM302	0.000	
24	  N6	6.806	-25.127	-7.326	N.pl3	1	SAM302	0.000	
25	  N7	4.664	-23.260	-6.335	N.2	1	SAM302	0.000	
26	  C8	3.432	-22.814	-5.990	C.2	1	SAM302	0.000	
27	  N9	2.528	-23.810	-6.249	N.2	1	SAM302	0.000	
@<TRIPOS>BOND
1 1 2 1
2 2 3 1
3 2 5 1
4 3 4 ar
5 3 17 ar
6 5 6 1
7 6 7 1
8 7 8 1
9 7 9 1
10 9 10 1
11 10 11 1
12 10 12 1
13 11 16 1
14 12 13 1
15 12 14 1
16 14 15 1
17 14 16 1
18 16 27 1
19 18 19 ar
20 18 23 ar
21 19 20 ar
22 20 21 ar
23 21 22 ar
24 21 27 ar
25 22 23 ar
26 22 25 ar
27 23 24 1
28 25 26 ar
29 26 27 ar
@<TRIPOS>SUBSTRUCTURE
1	SAM302	1	GROUP	1 A	SAM
