# created with PyMOL 2.4.0
@<TRIPOS>MOLECULE
temp
50 52 1                 
SMALL
USER_CHARGES
@<TRIPOS>ATOM
1	   N	-4.514	-23.666	-9.875	N.4	1	SAM1	0.000	
2	  CA	-5.193	-23.604	-8.576	C.3	1	SAM1	0.000	
3	   C	-6.482	-22.816	-8.715	C.2	1	SAM1	0.000	
4	   O	-6.721	-22.205	-9.758	O.co2	1	SAM1	0.000	
5	  CB	-4.289	-22.981	-7.515	C.3	1	SAM1	0.000	
6	  CG	-3.935	-21.510	-7.726	C.3	1	SAM1	0.000	
7	  SD	-2.943	-20.840	-6.370	S.3	1	SAM1	0.000	
8	  CE	-3.097	-19.066	-6.678	C.3	1	SAM1	0.000	
9	 C5'	-1.239	-21.179	-6.875	C.3	1	SAM1	0.000	
10	 C4'	-0.828	-22.602	-6.520	C.3	1	SAM1	0.000	
11	 O4'	0.486	-22.851	-6.973	O.3	1	SAM1	0.000	
12	 C3'	-0.818	-22.860	-5.017	C.3	1	SAM1	0.000	
13	 O3'	-1.717	-23.912	-4.732	O.3	1	SAM1	0.000	
14	 C2'	0.627	-23.229	-4.716	C.3	1	SAM1	0.000	
15	 O2'	0.797	-24.188	-3.696	O.3	1	SAM1	0.000	
16	 C1'	1.074	-23.760	-6.061	C.3	1	SAM1	0.000	
17	 OXT	-7.306	-22.789	-7.799	O.co2	1	SAM1	0.000	
18	  N1	5.075	-26.670	-7.690	N.2	1	SAM1	0.000	
19	  C2	3.740	-27.008	-7.652	C.2	1	SAM1	0.000	
20	  N3	2.815	-26.103	-7.177	N.2	1	SAM1	0.000	
21	  C4	3.219	-24.878	-6.766	C.2	1	SAM1	0.000	
22	  C5	4.561	-24.524	-6.806	C.2	1	SAM1	0.000	
23	  C6	5.502	-25.431	-7.282	C.2	1	SAM1	0.000	
24	  N6	6.806	-25.127	-7.326	N.pl3	1	SAM1	0.000	
25	  N7	4.664	-23.260	-6.335	N.2	1	SAM1	0.000	
26	  C8	3.432	-22.814	-5.990	C.2	1	SAM1	0.000	
27	  N9	2.528	-23.810	-6.249	N.2	1	SAM1	0.000	
28	  HA	-5.428	-24.618	-8.253	 H	1	SAM1	0.000	
29	 HB1	-3.359	-23.549	-7.492	 H	1	SAM1	0.000	
30	 HB2	-4.793	-23.069	-6.552	 H	1	SAM1	0.000	
31	 HG1	-4.858	-20.935	-7.802	 H	1	SAM1	0.000	
32	 HG2	-3.370	-21.415	-8.653	 H	1	SAM1	0.000	
33	 HE1	-4.100	-18.736	-6.407	 H	1	SAM1	0.000	
34	 HE2	-2.921	-18.864	-7.734	 H	1	SAM1	0.000	
35	 HE3	-2.363	-18.528	-6.078	 H	1	SAM1	0.000	
36	  H1	-4.292	-22.730	-10.184	 H	1	SAM1	0.000	
37	  H2	-5.120	-24.108	-10.551	 H	1	SAM1	0.000	
38	  H2	3.419	-27.981	-7.994	 H	1	SAM1	0.000	
39	  H3	-3.663	-24.202	-9.785	 H	1	SAM1	0.000	
40	  H8	3.202	-21.841	-5.581	 H	1	SAM1	0.000	
41	 H1'	0.770	-24.799	-6.187	 H	1	SAM1	0.000	
42	 H2'	1.198	-22.386	-4.327	 H	1	SAM1	0.000	
43	 H2'	0.439	-23.817	-2.886	 H	1	SAM1	0.000	
44	 H3'	-1.136	-22.013	-4.410	 H	1	SAM1	0.000	
45	 H3'	-1.654	-24.101	-3.793	 H	1	SAM1	0.000	
46	 H4'	-1.563	-23.251	-6.996	 H	1	SAM1	0.000	
47	 H61	7.125	-24.222	-7.009	 H	1	SAM1	0.000	
48	 H62	7.470	-25.802	-7.676	 H	1	SAM1	0.000	
49	H5'1	-0.573	-20.480	-6.368	 H	1	SAM1	0.000	
50	H5'2	-1.155	-21.044	-7.953	 H	1	SAM1	0.000	
@<TRIPOS>BOND
1 1 2 1
2 1 36 1
3 1 37 1
4 1 39 1
5 2 3 1
6 2 5 1
7 2 28 1
8 3 4 ar
9 3 17 ar
10 5 6 1
11 5 29 1
12 5 30 1
13 6 7 1
14 6 31 1
15 6 32 1
16 7 8 1
17 7 9 1
18 8 33 1
19 8 34 1
20 8 35 1
21 9 10 1
22 9 49 1
23 9 50 1
24 10 11 1
25 10 12 1
26 10 46 1
27 11 16 1
28 12 13 1
29 12 14 1
30 12 44 1
31 13 45 1
32 14 15 1
33 14 16 1
34 14 42 1
35 15 43 1
36 16 27 1
37 16 41 1
38 18 19 ar
39 18 23 ar
40 19 20 ar
41 19 38 1
42 20 21 ar
43 21 22 ar
44 21 27 ar
45 22 23 ar
46 22 25 ar
47 23 24 1
48 24 47 1
49 24 48 1
50 25 26 ar
51 26 27 ar
52 26 40 1
@<TRIPOS>SUBSTRUCTURE
1	SAM1	1	GROUP	1 A	SAM
