# created with PyMOL 2.5.0
@<TRIPOS>MOLECULE
5VSC
27 29 1                 
SMALL
USER_CHARGES
@<TRIPOS>ATOM
1	 CAB	35.024	11.793	-13.698	C.3	1	9HJ1506	0.000	
2	 CAC	40.408	12.749	-13.914	C.3	1	9HJ1506	0.000	
3	 CAD	43.069	21.092	-9.824	C.3	1	9HJ1506	0.000	
4	 CAE	35.990	14.240	-12.649	C.2	1	9HJ1506	0.000	
5	 CAF	38.730	14.713	-12.658	C.2	1	9HJ1506	0.000	
6	 CAJ	33.383	17.878	-9.465	C.3	1	9HJ1506	0.000	
7	 CAK	33.858	18.446	-10.795	C.3	1	9HJ1506	0.000	
8	 CAL	40.806	18.092	-9.778	C.3	1	9HJ1506	0.000	
9	 CAM	40.163	19.517	-11.667	C.3	1	9HJ1506	0.000	
10	 CAN	42.027	18.962	-9.496	C.3	1	9HJ1506	0.000	
11	 CAO	41.409	20.375	-11.428	C.3	1	9HJ1506	0.000	
12	 CAW	36.870	13.278	-13.150	C.2	1	9HJ1506	0.000	
13	 CAX	38.226	13.515	-13.165	C.2	1	9HJ1506	0.000	
14	 NAR	35.305	18.565	-10.679	N.pl3	1	9HJ1506	0.000	
15	 NAS	39.695	17.041	-11.696	N.pl3	1	9HJ1506	0.000	
16	 OAT	36.428	12.078	-13.654	O.3	1	9HJ1506	0.000	
17	 OAU	39.023	12.519	-13.659	O.3	1	9HJ1506	0.000	
18	 CBB	40.607	18.115	-11.286	C.3	1	9HJ1506	0.000	
19	 NBC	41.824	20.331	-10.008	N.3	1	9HJ1506	0.000	
20	  C1	35.915	19.740	-10.069	C.3	1	9HJ1506	0.000	
21	  N1	37.497	17.814	-11.175	N.2	1	9HJ1506	0.000	
22	  C2	36.162	17.572	-11.177	C.2	1	9HJ1506	0.000	
23	  N3	35.654	16.404	-11.661	N.2	1	9HJ1506	0.000	
24	  C4	36.489	15.447	-12.151	C.2	1	9HJ1506	0.000	
25	  C5	37.856	15.682	-12.158	C.2	1	9HJ1506	0.000	
26	  C6	38.348	16.887	-11.658	C.2	1	9HJ1506	0.000	
27	  C7	31.869	17.852	-9.409	C.3	1	9HJ1506	0.000	
@<TRIPOS>BOND
1 1 16 1
2 2 17 1
3 3 19 1
4 4 12 ar
5 4 24 ar
6 5 13 ar
7 5 25 ar
8 6 7 1
9 6 27 1
10 7 14 1
11 8 10 1
12 8 18 1
13 9 11 1
14 9 18 1
15 10 19 1
16 11 19 1
17 12 13 ar
18 12 16 1
19 13 17 1
20 14 20 1
21 14 22 1
22 15 18 1
23 15 26 1
24 21 22 ar
25 21 26 ar
26 22 23 ar
27 23 24 ar
28 24 25 ar
29 25 26 ar
@<TRIPOS>SUBSTRUCTURE
1	9HJ1506	1	GROUP	1 B	9HJ
