@<TRIPOS>MOLECULE
5VSC.B
60 62 1 0 0 
SMALL
USER_CHARGES


@<TRIPOS>ATOM
  1 CAB     35.0240    11.7930   -13.6980 C.3   1 Q9HJ   0.0400 
  2 HAB1    34.8675    10.8028   -14.1260 H     1 Q9HJ   0.0800 
  3 HAB2    34.5210    12.5386   -14.3137 H     1 Q9HJ   0.0800 
  4 HAB3    34.6158    11.8208   -12.6877 H     1 Q9HJ   0.0800 
  5 CAC     40.4080    12.7490   -13.9140 C.3   1 Q9HJ   0.0400 
  6 HAC1    40.8624    11.8372   -14.3015 H     1 Q9HJ   0.0800 
  7 HAC2    40.9050    13.0374   -12.9877 H     1 Q9HJ   0.0800 
  8 HAC3    40.5146    13.5482   -14.6475 H     1 Q9HJ   0.0800 
  9 CAD     43.0690    21.0920    -9.8240 C.3   1 Q9HJ   0.2630 
 10 HAD1    43.3666    21.0539    -8.7761 H     1 Q9HJ   0.0800 
 11 HAD2    42.9079    22.1290   -10.1185 H     1 Q9HJ   0.0800 
 12 HAD3    43.8553    20.6571   -10.4410 H     1 Q9HJ   0.0800 
 13 CAE     35.9900    14.2400   -12.6490 C.ar  1 Q9HJ  -0.1500 
 14 HAE     34.9265    14.0517   -12.6464 H     1 Q9HJ   0.1500 
 15 CAF     38.7300    14.7130   -12.6580 C.ar  1 Q9HJ  -0.1500 
 16 HAF     39.7951    14.8915   -12.6519 H     1 Q9HJ   0.1500 
 17 CAJ     33.3830    17.8780    -9.4650 C.3   1 Q9HJ  -0.1600 
 18 HAJ1    33.7613    18.5001    -8.6538 H     1 Q9HJ   0.0800 
 19 HAJ2    33.7635    16.8628    -9.3522 H     1 Q9HJ   0.0800 
 20 CAK     33.8580    18.4460   -10.7950 C.3   1 Q9HJ   0.2091 
 21 HAK1    33.4094    19.4234   -10.9727 H     1 Q9HJ   0.0800 
 22 HAK2    33.5963    17.7724   -11.6110 H     1 Q9HJ   0.0800 
 23 CAL     40.8060    18.0920    -9.7780 C.3   1 Q9HJ  -0.1600 
 24 HAL1    39.9285    18.4981    -9.2749 H     1 Q9HJ   0.0800 
 25 HAL2    40.9816    17.0722    -9.4356 H     1 Q9HJ   0.0800 
 26 CAM     40.1630    19.5170   -11.6670 C.3   1 Q9HJ  -0.1600 
 27 HAM1    39.8593    19.5569   -12.7131 H     1 Q9HJ   0.0800 
 28 HAM2    39.3377    19.8474   -11.0363 H     1 Q9HJ   0.0800 
 29 CAN     42.0270    18.9620    -9.4960 C.3   1 Q9HJ   0.3430 
 30 HAN1    42.8982    18.5238    -9.9829 H     1 Q9HJ   0.0800 
 31 HAN2    42.1950    19.0041    -8.4199 H     1 Q9HJ   0.0800 
 32 CAO     41.4090    20.3750   -11.4280 C.3   1 Q9HJ   0.3430 
 33 HAO1    41.1884    21.4066   -11.7023 H     1 Q9HJ   0.0800 
 34 HAO2    42.2232    20.0003   -12.0483 H     1 Q9HJ   0.0800 
 35 CAW     36.8700    13.2780   -13.1500 C.ar  1 Q9HJ   0.0825 
 36 CAX     38.2260    13.5150   -13.1650 C.ar  1 Q9HJ   0.0825 
 37 NAR     35.3050    18.5650   -10.6790 N.pl3 1 Q9HJ  -0.8382 
 38 NAS     39.6950    17.0410   -11.6960 N.pl3 1 Q9HJ  -0.8691 
 39 HAS     40.1736    16.2446   -12.0919 H     1 Q9HJ   0.4000 
 40 OAT     36.4280    12.0780   -13.6540 O.3   1 Q9HJ  -0.3625 
 41 OAU     39.0230    12.5190   -13.6590 O.3   1 Q9HJ  -0.3625 
 42 CBB     40.6070    18.1150   -11.2860 C.3   1 Q9HJ   0.2891 
 43 HBB     41.5291    17.9079   -11.8291 H     1 Q9HJ   0.0800 
 44 NBC     41.8240    20.3310   -10.0080 N.4   1 Q9HJ  -0.9590 
 45 HBC     41.0653    20.7413    -9.4826 H     1 Q9HJ   0.4500 
 46 C1      35.9150    19.7400   -10.0690 C.3   1 Q9HJ   0.1291 
 47 H11     35.1338    20.4204    -9.7302 H     1 Q9HJ   0.0800 
 48 H12     36.5438    20.2450   -10.8023 H     1 Q9HJ   0.0800 
 49 H13     36.5236    19.4332    -9.2184 H     1 Q9HJ   0.0800 
 50 N1      37.4970    17.8140   -11.1750 N.ar  1 Q9HJ  -0.6200 
 51 C2      36.1620    17.5720   -11.1770 C.ar  1 Q9HJ   0.7710 
 52 N3      35.6540    16.4040   -11.6610 N.ar  1 Q9HJ  -0.1790 
 53 H3      34.6561    16.2480   -11.6562 H     1 Q9HJ   0.4570 
 54 C4      36.4890    15.4470   -12.1510 C.ar  1 Q9HJ   0.3610 
 55 C5      37.8560    15.6820   -12.1580 C.ar  1 Q9HJ   0.0000 
 56 C6      38.3480    16.8870   -11.6580 C.ar  1 Q9HJ   0.4100 
 57 C7      31.8690    17.8520    -9.4090 C.3   1 Q9HJ  -0.2400 
 58 H71     31.5478    17.4429    -8.4511 H     1 Q9HJ   0.0800 
 59 H72     31.4862    17.2286   -10.2170 H     1 Q9HJ   0.0800 
 60 H73     31.4839    18.8658    -9.5186 H     1 Q9HJ   0.0800 
@<TRIPOS>BOND
  1   1   2  1   
  2   1   3  1   
  3   1   4  1   
  4   1  40  1   
  5   5   6  1   
  6   5   7  1   
  7   5   8  1   
  8   5  41  1   
  9   9  10  1   
 10   9  11  1   
 11   9  12  1   
 12   9  44  1   
 13  13  14  1   
 14  13  35  ar  
 15  13  54  ar  
 16  15  16  1   
 17  15  36  ar  
 18  15  55  ar  
 19  17  18  1   
 20  17  19  1   
 21  17  20  1   
 22  17  57  1   
 23  20  21  1   
 24  20  22  1   
 25  20  37  1   
 26  23  24  1   
 27  23  25  1   
 28  23  29  1   
 29  23  42  1   
 30  26  27  1   
 31  26  28  1   
 32  26  32  1   
 33  26  42  1   
 34  29  30  1   
 35  29  31  1   
 36  29  44  1   
 37  32  33  1   
 38  32  34  1   
 39  32  44  1   
 40  35  36  ar  
 41  35  40  1   
 42  36  41  1   
 43  37  46  1   
 44  37  51  1   
 45  38  39  1   
 46  38  42  1   
 47  38  56  1   
 48  42  43  1   
 49  44  45  1   
 50  46  47  1   
 51  46  48  1   
 52  46  49  1   
 53  50  51  ar  
 54  50  56  ar  
 55  51  52  ar  
 56  52  53  1   
 57  52  54  ar  
 58  54  55  ar  
 59  55  56  ar  
 60  57  58  1   
 61  57  59  1   
 62  57  60  1   
@<TRIPOS>SUBSTRUCTURE
  1 Q9HJ  56 GROUP 4 B **** 0

# MOE 2022.02 (io_trps.svl 2020.11)
