# created with PyMOL 2.5.0
@<TRIPOS>MOLECULE
5VSC
27 29 1                 
SMALL
USER_CHARGES
@<TRIPOS>ATOM
1	 CAB	8.510	10.863	29.177	C.3	1	9HJ1506	0.000	
2	 CAC	3.208	12.375	29.425	C.3	1	9HJ1506	0.000	
3	 CAD	1.479	21.289	26.579	C.3	1	9HJ1506	0.000	
4	 CAE	7.811	13.493	28.427	C.2	1	9HJ1506	0.000	
5	 CAF	5.152	14.259	28.496	C.2	1	9HJ1506	0.000	
6	 CAJ	10.960	17.695	28.372	C.3	1	9HJ1506	0.000	
7	 CAK	10.426	17.557	26.952	C.3	1	9HJ1506	0.000	
8	 CAL	3.542	18.194	26.083	C.3	1	9HJ1506	0.000	
9	 CAM	4.265	19.270	28.144	C.3	1	9HJ1506	0.000	
10	 CAN	2.421	19.211	25.893	C.3	1	9HJ1506	0.000	
11	 CAO	3.144	20.303	28.006	C.3	1	9HJ1506	0.000	
12	 CAW	6.826	12.574	28.798	C.2	1	9HJ1506	0.000	
13	 CAX	5.499	12.952	28.834	C.2	1	9HJ1506	0.000	
14	 NAR	9.026	17.928	27.040	N.pl3	1	9HJ1506	0.000	
15	 NAS	4.456	16.778	27.843	N.pl3	1	9HJ1506	0.000	
16	 OAT	7.145	11.282	29.128	O.3	1	9HJ1506	0.000	
17	 OAU	4.573	12.006	29.199	O.3	1	9HJ1506	0.000	
18	 CBB	3.671	17.990	27.582	C.3	1	9HJ1506	0.000	
19	 NBC	2.704	20.475	26.602	N.3	1	9HJ1506	0.000	
20	  C1	8.638	19.302	26.758	C.3	1	9HJ1506	0.000	
21	  N1	6.736	17.378	27.432	N.2	1	9HJ1506	0.000	
22	  C2	8.042	16.993	27.404	C.2	1	9HJ1506	0.000	
23	  N3	8.403	15.724	27.730	N.2	1	9HJ1506	0.000	
24	  C4	7.466	14.805	28.089	C.2	1	9HJ1506	0.000	
25	  C5	6.131	15.186	28.130	C.2	1	9HJ1506	0.000	
26	  C6	5.779	16.494	27.793	C.2	1	9HJ1506	0.000	
27	  C7	12.256	18.477	28.402	C.3	1	9HJ1506	0.000	
@<TRIPOS>BOND
1 1 16 1
2 2 17 1
3 3 19 1
4 4 12 ar
5 4 24 ar
6 5 13 ar
7 5 25 ar
8 6 7 1
9 6 27 1
10 7 14 1
11 8 10 1
12 8 18 1
13 9 11 1
14 9 18 1
15 10 19 1
16 11 19 1
17 12 13 ar
18 12 16 1
19 13 17 1
20 14 20 1
21 14 22 1
22 15 18 1
23 15 26 1
24 21 22 ar
25 21 26 ar
26 22 23 ar
27 23 24 ar
28 24 25 ar
29 25 26 ar
@<TRIPOS>SUBSTRUCTURE
1	9HJ1506	1	GROUP	1 A	9HJ
