@<TRIPOS>MOLECULE
5VSC.A
60 62 1 0 0 
SMALL
USER_CHARGES


@<TRIPOS>ATOM
  1 CAB      8.5100    10.8630    29.1770 C.3   1 Q9HJ   0.0400 
  2 HAB1     8.5571     9.8103    29.4557 H     1 Q9HJ   0.0800 
  3 HAB2     9.0466    11.4587    29.9154 H     1 Q9HJ   0.0800 
  4 HAB3     8.9676    11.0004    28.1973 H     1 Q9HJ   0.0800 
  5 CAC      3.2080    12.3750    29.4250 C.3   1 Q9HJ   0.0400 
  6 HAC1     2.6341    11.4912    29.7038 H     1 Q9HJ   0.0800 
  7 HAC2     2.7924    12.8056    28.5140 H     1 Q9HJ   0.0800 
  8 HAC3     3.1584    13.1091    30.2292 H     1 Q9HJ   0.0800 
  9 CAD      1.4790    21.2890    26.5790 C.3   1 Q9HJ   0.2630 
 10 HAD1     1.1491    21.4199    25.5484 H     1 Q9HJ   0.0800 
 11 HAD2     1.6822    22.2639    27.0221 H     1 Q9HJ   0.0800 
 12 HAD3     0.6980    20.7864    27.1495 H     1 Q9HJ   0.0800 
 13 CAE      7.8110    13.4930    28.4270 C.ar  1 Q9HJ  -0.1500 
 14 HAE      8.8466    13.1875    28.4012 H     1 Q9HJ   0.1500 
 15 CAF      5.1520    14.2590    28.4960 C.ar  1 Q9HJ  -0.1500 
 16 HAF      4.1146    14.5584    28.5173 H     1 Q9HJ   0.1500 
 17 CAJ     10.9600    17.6950    28.3720 C.3   1 Q9HJ  -0.1600 
 18 HAJ1    11.1363    16.7008    28.7826 H     1 Q9HJ   0.0800 
 19 HAJ2    10.2190    18.2133    28.9806 H     1 Q9HJ   0.0800 
 20 CAK     10.4260    17.5570    26.9520 C.3   1 Q9HJ   0.2091 
 21 HAK1    10.5289    16.5299    26.6020 H     1 Q9HJ   0.0800 
 22 HAK2    10.9580    18.2262    26.2758 H     1 Q9HJ   0.0800 
 23 CAL      3.5420    18.1940    26.0830 C.3   1 Q9HJ  -0.1600 
 24 HAL1     4.4754    18.5776    25.6711 H     1 Q9HJ   0.0800 
 25 HAL2     3.2879    17.2540    25.5932 H     1 Q9HJ   0.0800 
 26 CAM      4.2650    19.2700    28.1440 C.3   1 Q9HJ  -0.1600 
 27 HAM1     4.5426    19.1396    29.1900 H     1 Q9HJ   0.0800 
 28 HAM2     5.1412    19.5728    27.5706 H     1 Q9HJ   0.0800 
 29 CAN      2.4210    19.2110    25.8930 C.3   1 Q9HJ   0.3430 
 30 HAN1     1.4928    18.7897    26.2790 H     1 Q9HJ   0.0800 
 31 HAN2     2.3103    19.4200    24.8290 H     1 Q9HJ   0.0800 
 32 CAO      3.1440    20.3030    28.0060 C.3   1 Q9HJ   0.3430 
 33 HAO1     3.5034    21.2616    28.3801 H     1 Q9HJ   0.0800 
 34 HAO2     2.2920    19.9767    28.6023 H     1 Q9HJ   0.0800 
 35 CAW      6.8260    12.5740    28.7980 C.ar  1 Q9HJ   0.0825 
 36 CAX      5.4990    12.9520    28.8340 C.ar  1 Q9HJ   0.0825 
 37 NAR      9.0260    17.9280    27.0400 N.pl3 1 Q9HJ  -0.8382 
 38 NAS      4.4560    16.7780    27.8430 N.pl3 1 Q9HJ  -0.8691 
 39 HAS      3.8895    15.9884    28.1182 H     1 Q9HJ   0.4000 
 40 OAT      7.1450    11.2820    29.1280 O.3   1 Q9HJ  -0.3625 
 41 OAU      4.5730    12.0060    29.1990 O.3   1 Q9HJ  -0.3625 
 42 CBB      3.6710    17.9900    27.5820 C.3   1 Q9HJ   0.2891 
 43 HBB      2.7169    17.8186    28.0805 H     1 Q9HJ   0.0800 
 44 NBC      2.7040    20.4750    26.6020 N.4   1 Q9HJ  -0.9590 
 45 HBC      3.4747    20.9186    26.1231 H     1 Q9HJ   0.4500 
 46 C1       8.6380    19.3020    26.7580 C.3   1 Q9HJ   0.1291 
 47 H11      9.5222    19.8824    26.4944 H     1 Q9HJ   0.0800 
 48 H12      8.1688    19.7356    27.6411 H     1 Q9HJ   0.0800 
 49 H13      7.9324    19.3171    25.9273 H     1 Q9HJ   0.0800 
 50 N1       6.7360    17.3780    27.4320 N.ar  1 Q9HJ  -0.6200 
 51 C2       8.0420    16.9930    27.4040 C.ar  1 Q9HJ   0.7710 
 52 N3       8.4030    15.7240    27.7300 N.ar  1 Q9HJ  -0.1790 
 53 H3       9.3776    15.4601    27.7055 H     1 Q9HJ   0.4570 
 54 C4       7.4660    14.8050    28.0890 C.ar  1 Q9HJ   0.3610 
 55 C5       6.1310    15.1860    28.1300 C.ar  1 Q9HJ   0.0000 
 56 C6       5.7790    16.4940    27.7930 C.ar  1 Q9HJ   0.4100 
 57 C7      12.2560    18.4770    28.4020 C.3   1 Q9HJ  -0.2400 
 58 H71     12.6087    18.5563    29.4303 H     1 Q9HJ   0.0800 
 59 H72     12.0876    19.4751    27.9976 H     1 Q9HJ   0.0800 
 60 H73     13.0048    17.9626    27.7997 H     1 Q9HJ   0.0800 
@<TRIPOS>BOND
  1   1   2  1   
  2   1   3  1   
  3   1   4  1   
  4   1  40  1   
  5   5   6  1   
  6   5   7  1   
  7   5   8  1   
  8   5  41  1   
  9   9  10  1   
 10   9  11  1   
 11   9  12  1   
 12   9  44  1   
 13  13  14  1   
 14  13  35  ar  
 15  13  54  ar  
 16  15  16  1   
 17  15  36  ar  
 18  15  55  ar  
 19  17  18  1   
 20  17  19  1   
 21  17  20  1   
 22  17  57  1   
 23  20  21  1   
 24  20  22  1   
 25  20  37  1   
 26  23  24  1   
 27  23  25  1   
 28  23  29  1   
 29  23  42  1   
 30  26  27  1   
 31  26  28  1   
 32  26  32  1   
 33  26  42  1   
 34  29  30  1   
 35  29  31  1   
 36  29  44  1   
 37  32  33  1   
 38  32  34  1   
 39  32  44  1   
 40  35  36  ar  
 41  35  40  1   
 42  36  41  1   
 43  37  46  1   
 44  37  51  1   
 45  38  39  1   
 46  38  42  1   
 47  38  56  1   
 48  42  43  1   
 49  44  45  1   
 50  46  47  1   
 51  46  48  1   
 52  46  49  1   
 53  50  51  ar  
 54  50  56  ar  
 55  51  52  ar  
 56  52  53  1   
 57  52  54  ar  
 58  54  55  ar  
 59  55  56  ar  
 60  57  58  1   
 61  57  59  1   
 62  57  60  1   
@<TRIPOS>SUBSTRUCTURE
  1 Q9HJ  56 GROUP 4 A **** 0

# MOE 2022.02 (io_trps.svl 2020.11)
