@<TRIPOS>MOLECULE
5VSC.B
51 53 1 0 0 
SMALL
USER_CHARGES


@<TRIPOS>ATOM
  1 N       43.1250     0.2310   -11.2470 N.4   1 SAM  -0.8530 
  2 H1      42.8783    -0.7167   -11.0000 H     1 SAM   0.4500 
  3 H2      44.1139     0.2804   -11.4464 H     1 SAM   0.4500 
  4 H3      42.6024     0.5129   -12.0640 H     1 SAM   0.4500 
  5 CA      42.8020     1.1380   -10.1150 C.3   1 SAM   0.3170 
  6 HA      43.0729     2.1560   -10.3948 H     1 SAM   0.0800 
  7 C       43.6020     0.7470    -8.8970 C.2   1 SAM   0.9060 
  8 O       44.4740    -0.1540    -8.9940 O.co2 1 SAM  -0.9000 
  9 CB      41.3050     1.1280    -9.8170 C.3   1 SAM  -0.1600 
 10 HB1     41.1493     1.3985    -8.7727 H     1 SAM   0.0800 
 11 HB2     40.9145     0.1260    -9.9949 H     1 SAM   0.0800 
 12 CG      40.5500     2.1250   -10.7100 C.3   1 SAM  -0.1525 
 13 HG1     39.4826     1.9291   -10.6076 H     1 SAM   0.0800 
 14 HG2     40.8539     1.9512   -11.7423 H     1 SAM   0.0800 
 15 SD      40.8200     3.7530   -10.3520 S.3   1 SAM   0.9775 
 16 CE      39.3260     4.4040   -10.0560 C.3   1 SAM  -0.2325 
 17 HE1     38.9045     3.9527    -9.1578 H     1 SAM   0.0800 
 18 HE2     38.6696     4.2075   -10.9037 H     1 SAM   0.0800 
 19 HE3     39.4207     5.4802    -9.9117 H     1 SAM   0.0800 
 20 C5'     41.2900     4.5590   -11.7420 C.3   1 SAM  -0.1525 
 21 H5'1    41.1712     5.6276   -11.5630 H     1 SAM   0.0800 
 22 H5'2    40.6240     4.2492   -12.5473 H     1 SAM   0.0800 
 23 C4'     42.7320     4.3200   -12.2090 C.3   1 SAM   0.2000 
 24 H4'     43.3001     4.5635   -11.3112 H     1 SAM   0.0800 
 25 O4'     42.9270     2.9780   -12.6840 O.3   1 SAM  -0.5600 
 26 C3'     43.1910     5.1810   -13.3900 C.3   1 SAM   0.2000 
 27 H3'     42.3866     5.3810   -14.0979 H     1 SAM   0.0800 
 28 O3'     43.6270     6.4910   -13.0020 O.3   1 SAM  -0.6800 
 29 H3'     43.9252     6.9441   -13.7941 H     1 SAM   0.4000 
 30 C2'     44.3360     4.3610   -13.9580 C.3   1 SAM   0.2000 
 31 H2'     44.6364     4.6706   -14.9590 H     1 SAM   0.0800 
 32 O2'     45.4840     4.4520   -13.1120 O.3   1 SAM  -0.6800 
 33 H2'     45.7784     5.3657   -13.1195 H     1 SAM   0.4000 
 34 C1'     43.7850     2.9560   -13.8340 C.3   1 SAM   0.5691 
 35 H1'     44.5984     2.2335   -13.7664 H     1 SAM   0.0800 
 36 OXT     43.3770     1.3530    -7.8230 O.co2 1 SAM  -0.9000 
 37 N1      43.5700     1.9500   -18.9240 N.2   1 SAM  -0.6610 
 38 C2      44.6270     2.2390   -18.1660 C.2   1 SAM   0.6010 
 39 H2      45.5967     2.2829   -18.6394 H     1 SAM   0.0600 
 40 N3      44.5550     2.4780   -16.8510 N.2   1 SAM  -0.6610 
 41 C4      43.3280     2.4250   -16.2620 C.2   1 SAM   0.5000 
 42 C5      42.2080     2.1370   -17.0230 C.2   1 SAM   0.4500 
 43 C6      42.3400     1.8940   -18.3820 C.2   1 SAM   0.6110 
 44 N6      41.2950     1.6020   -19.1760 N.2   1 SAM  -0.2000 
 45 H62     41.4410     1.4326   -20.1609 H     1 SAM   0.4000 
 46 H61     40.3640     1.5520   -18.7875 H     1 SAM   0.4000 
 47 N7      41.1260     2.1580   -16.1880 N.2   1 SAM  -0.6960 
 48 C8      41.5980     2.4520   -14.9600 C.3   1 SAM   0.4551 
 49 H81     41.3610     1.6349   -14.2786 H     1 SAM   0.0800 
 50 H82     41.1287     3.3693   -14.6045 H     1 SAM   0.0800 
 51 N9      42.9320     2.6230   -15.0010 N.pl3 1 SAM  -0.7882 
@<TRIPOS>BOND
  1   1   2  1   
  2   1   3  1   
  3   1   4  1   
  4   1   5  1   
  5   5   6  1   
  6   5   7  1   
  7   5   9  1   
  8   7   8  ar  
  9   7  36  ar  
 10   9  10  1   
 11   9  11  1   
 12   9  12  1   
 13  12  13  1   
 14  12  14  1   
 15  12  15  1   
 16  15  16  1   
 17  15  20  1   
 18  16  17  1   
 19  16  18  1   
 20  16  19  1   
 21  20  21  1   
 22  20  22  1   
 23  20  23  1   
 24  23  24  1   
 25  23  25  1   
 26  23  26  1   
 27  25  34  1   
 28  26  27  1   
 29  26  28  1   
 30  26  30  1   
 31  28  29  1   
 32  30  31  1   
 33  30  32  1   
 34  30  34  1   
 35  32  33  1   
 36  34  35  1   
 37  34  51  1   
 38  37  38  2   
 39  37  43  1   
 40  38  39  1   
 41  38  40  1   
 42  40  41  2   
 43  41  42  1   
 44  41  51  1   
 45  42  43  1   
 46  42  47  2   
 47  43  44  2   
 48  44  45  1   
 49  44  46  1   
 50  47  48  1   
 51  48  49  1   
 52  48  50  1   
 53  48  51  1   
@<TRIPOS>SUBSTRUCTURE
  1 SAM  25 GROUP 4 B **** 0

# MOE 2022.02 (io_trps.svl 2020.11)
