# created with PyMOL 2.4.0
@<TRIPOS>MOLECULE
temp
50 52 1                 
SMALL
USER_CHARGES
@<TRIPOS>ATOM
1	   N	43.125	0.231	-11.247	N.4	1	SAM1	0.000	
2	  CA	42.802	1.138	-10.115	C.3	1	SAM1	0.000	
3	   C	43.602	0.747	-8.897	C.2	1	SAM1	0.000	
4	   O	44.474	-0.154	-8.994	O.co2	1	SAM1	0.000	
5	  CB	41.305	1.128	-9.817	C.3	1	SAM1	0.000	
6	  CG	40.550	2.125	-10.710	C.3	1	SAM1	0.000	
7	  SD	40.820	3.753	-10.352	S.3	1	SAM1	0.000	
8	  CE	39.326	4.404	-10.056	C.3	1	SAM1	0.000	
9	 C5'	41.290	4.559	-11.742	C.3	1	SAM1	0.000	
10	 C4'	42.732	4.320	-12.209	C.3	1	SAM1	0.000	
11	 O4'	42.927	2.978	-12.684	O.3	1	SAM1	0.000	
12	 C3'	43.191	5.181	-13.390	C.3	1	SAM1	0.000	
13	 O3'	43.627	6.491	-13.002	O.3	1	SAM1	0.000	
14	 C2'	44.336	4.361	-13.958	C.3	1	SAM1	0.000	
15	 O2'	45.484	4.452	-13.112	O.3	1	SAM1	0.000	
16	 C1'	43.785	2.956	-13.834	C.3	1	SAM1	0.000	
17	 OXT	43.377	1.353	-7.823	O.co2	1	SAM1	0.000	
18	  N1	43.570	1.950	-18.924	N.2	1	SAM1	0.000	
19	  C2	44.627	2.239	-18.166	C.2	1	SAM1	0.000	
20	  N3	44.555	2.478	-16.851	N.2	1	SAM1	0.000	
21	  C4	43.328	2.425	-16.262	C.2	1	SAM1	0.000	
22	  C5	42.208	2.137	-17.023	C.2	1	SAM1	0.000	
23	  C6	42.340	1.894	-18.382	C.2	1	SAM1	0.000	
24	  N6	41.295	1.602	-19.176	N.pl3	1	SAM1	0.000	
25	  N7	41.126	2.158	-16.188	N.2	1	SAM1	0.000	
26	  C8	41.598	2.452	-14.960	C.2	1	SAM1	0.000	
27	  N9	42.932	2.623	-15.001	N.2	1	SAM1	0.000	
28	  HA	43.073	2.156	-10.395	 H	1	SAM1	0.000	
29	 HB1	41.149	1.398	-8.773	 H	1	SAM1	0.000	
30	 HB2	40.915	0.126	-9.995	 H	1	SAM1	0.000	
31	 HG1	39.483	1.929	-10.608	 H	1	SAM1	0.000	
32	 HG2	40.854	1.951	-11.742	 H	1	SAM1	0.000	
33	 HE1	38.904	3.953	-9.158	 H	1	SAM1	0.000	
34	 HE2	38.670	4.207	-10.904	 H	1	SAM1	0.000	
35	 HE3	39.421	5.480	-9.912	 H	1	SAM1	0.000	
36	  H1	42.878	-0.717	-11.000	 H	1	SAM1	0.000	
37	  H2	44.114	0.280	-11.446	 H	1	SAM1	0.000	
38	  H2	45.597	2.283	-18.639	 H	1	SAM1	0.000	
39	  H3	42.602	0.513	-12.064	 H	1	SAM1	0.000	
40	  H8	40.992	2.538	-14.070	 H	1	SAM1	0.000	
41	 H1'	44.598	2.234	-13.766	 H	1	SAM1	0.000	
42	 H2'	44.636	4.671	-14.959	 H	1	SAM1	0.000	
43	 H2'	45.778	5.366	-13.120	 H	1	SAM1	0.000	
44	 H3'	42.387	5.381	-14.098	 H	1	SAM1	0.000	
45	 H3'	43.925	6.944	-13.794	 H	1	SAM1	0.000	
46	 H4'	43.300	4.563	-11.311	 H	1	SAM1	0.000	
47	 H61	40.364	1.552	-18.788	 H	1	SAM1	0.000	
48	 H62	41.441	1.433	-20.161	 H	1	SAM1	0.000	
49	H5'1	41.171	5.628	-11.563	 H	1	SAM1	0.000	
50	H5'2	40.624	4.249	-12.547	 H	1	SAM1	0.000	
@<TRIPOS>BOND
1 1 2 1
2 1 36 1
3 1 37 1
4 1 39 1
5 2 3 1
6 2 5 1
7 2 28 1
8 3 4 ar
9 3 17 ar
10 5 6 1
11 5 29 1
12 5 30 1
13 6 7 1
14 6 31 1
15 6 32 1
16 7 8 1
17 7 9 1
18 8 33 1
19 8 34 1
20 8 35 1
21 9 10 1
22 9 49 1
23 9 50 1
24 10 11 1
25 10 12 1
26 10 46 1
27 11 16 1
28 12 13 1
29 12 14 1
30 12 44 1
31 13 45 1
32 14 15 1
33 14 16 1
34 14 42 1
35 15 43 1
36 16 27 1
37 16 41 1
38 18 19 ar
39 18 23 ar
40 19 20 ar
41 19 38 1
42 20 21 ar
43 21 22 ar
44 21 27 ar
45 22 23 ar
46 22 25 ar
47 23 24 1
48 24 47 1
49 24 48 1
50 25 26 ar
51 26 27 ar
52 26 40 1
@<TRIPOS>SUBSTRUCTURE
1	SAM1	1	GROUP	1 B	SAM
