@<TRIPOS>MOLECULE
5VSC.A
51 53 1 0 0 
SMALL
USER_CHARGES


@<TRIPOS>ATOM
  1 N       -1.1120     0.8100    25.4620 N.4   1 SAM  -0.8530 
  2 H1      -0.9792    -0.1288    25.1140 H     1 SAM   0.4500 
  3 H2      -2.0886     0.9552    25.6748 H     1 SAM   0.4500 
  4 H3      -0.5622     0.9396    26.2992 H     1 SAM   0.4500 
  5 CA      -0.6790     1.7880    24.4280 C.3   1 SAM   0.3170 
  6 HA      -0.8248     2.7986    24.8096 H     1 SAM   0.0800 
  7 C       -1.5120     1.5880    23.1930 C.2   1 SAM   0.9060 
  8 O       -2.4840     0.7870    23.2290 O.co2 1 SAM  -0.9000 
  9 CB       0.8110     1.6400    24.1090 C.3   1 SAM  -0.1600 
 10 HB1      1.0074     2.0355    23.1125 H     1 SAM   0.0800 
 11 HB2      1.0837     0.5852    24.1415 H     1 SAM   0.0800 
 12 CG       1.6480     2.4120    25.1350 C.3   1 SAM  -0.1525 
 13 HG1      2.6800     2.0704    25.0545 H     1 SAM   0.0800 
 14 HG2      1.2644     2.1783    26.1281 H     1 SAM   0.0800 
 15 SD       1.6370     4.0790    24.9530 S.3   1 SAM   0.9775 
 16 CE       3.2200     4.4950    24.6890 C.3   1 SAM  -0.2325 
 17 HE1      3.5542     4.0705    23.7423 H     1 SAM   0.0800 
 18 HE2      3.8376     4.1072    25.4992 H     1 SAM   0.0800 
 19 HE3      3.3090     5.5807    24.6520 H     1 SAM   0.0800 
 20 C5'      1.2350     4.7800    26.4230 C.3   1 SAM  -0.1525 
 21 H5'1     1.4588     5.8446    26.3554 H     1 SAM   0.0800 
 22 H5'2     1.8616     4.3250    27.1902 H     1 SAM   0.0800 
 23 C4'     -0.2270     4.6370    26.8680 C.3   1 SAM   0.2000 
 24 H4'     -0.7914     5.0030    26.0103 H     1 SAM   0.0800 
 25 O4'     -0.5450     3.2860    27.2200 O.3   1 SAM  -0.5600 
 26 C3'     -0.5510     5.4200    28.1310 C.3   1 SAM   0.2000 
 27 H3'      0.2704     5.4490    28.8469 H     1 SAM   0.0800 
 28 O3'     -0.8010     6.8080    27.8800 O.3   1 SAM  -0.6800 
 29 H3'     -1.0371     7.2163    28.7162 H     1 SAM   0.4000 
 30 C2'     -1.7810     4.6900    28.6350 C.3   1 SAM   0.2000 
 31 H2'     -2.0354     4.9293    29.6675 H     1 SAM   0.0800 
 32 O2'     -2.9100     5.0070    27.8120 O.3   1 SAM  -0.6800 
 33 H2'     -3.0894     5.9446    27.9140 H     1 SAM   0.4000 
 34 C1'     -1.4130     3.2510    28.3690 C.3   1 SAM   0.5691 
 35 H1'     -2.3130     2.6502    28.2381 H     1 SAM   0.0800 
 36 OXT     -1.2160     2.2520    22.1710 O.co2 1 SAM  -0.9000 
 37 N1      -1.4080     1.6990    33.3050 N.2   1 SAM  -0.6610 
 38 C2      -2.4170     2.1940    32.5770 C.2   1 SAM   0.6010 
 39 H2      -3.3873     2.3070    33.0375 H     1 SAM   0.0600 
 40 N3      -2.2620     2.5530    31.2980 N.2   1 SAM  -0.6610 
 41 C4      -1.0420     2.4140    30.7200 C.2   1 SAM   0.5000 
 42 C5       0.0070     1.8890    31.4450 C.2   1 SAM   0.4500 
 43 C6      -0.1820     1.5340    32.7690 C.2   1 SAM   0.6110 
 44 N6       0.8130     1.0210    33.5270 N.2   1 SAM  -0.2000 
 45 H62      0.6376     0.7733    34.4903 H     1 SAM   0.4000 
 46 H61      1.7317     0.8854    33.1300 H     1 SAM   0.4000 
 47 N7       1.0980     1.8690    30.6230 N.2   1 SAM  -0.6960 
 48 C8       0.6930     2.3570    29.4300 C.3   1 SAM   0.4551 
 49 H81      0.8386     1.5984    28.6610 H     1 SAM   0.0800 
 50 H82      1.2800     3.2417    29.1833 H     1 SAM   0.0800 
 51 N9      -0.6090     2.6880    29.4890 N.pl3 1 SAM  -0.7882 
@<TRIPOS>BOND
  1   1   2  1   
  2   1   3  1   
  3   1   4  1   
  4   1   5  1   
  5   5   6  1   
  6   5   7  1   
  7   5   9  1   
  8   7   8  ar  
  9   7  36  ar  
 10   9  10  1   
 11   9  11  1   
 12   9  12  1   
 13  12  13  1   
 14  12  14  1   
 15  12  15  1   
 16  15  16  1   
 17  15  20  1   
 18  16  17  1   
 19  16  18  1   
 20  16  19  1   
 21  20  21  1   
 22  20  22  1   
 23  20  23  1   
 24  23  24  1   
 25  23  25  1   
 26  23  26  1   
 27  25  34  1   
 28  26  27  1   
 29  26  28  1   
 30  26  30  1   
 31  28  29  1   
 32  30  31  1   
 33  30  32  1   
 34  30  34  1   
 35  32  33  1   
 36  34  35  1   
 37  34  51  1   
 38  37  38  2   
 39  37  43  1   
 40  38  39  1   
 41  38  40  1   
 42  40  41  2   
 43  41  42  1   
 44  41  51  1   
 45  42  43  1   
 46  42  47  2   
 47  43  44  2   
 48  44  45  1   
 49  44  46  1   
 50  47  48  1   
 51  48  49  1   
 52  48  50  1   
 53  48  51  1   
@<TRIPOS>SUBSTRUCTURE
  1 SAM  25 GROUP 4 A **** 0

# MOE 2022.02 (io_trps.svl 2020.11)
