# created with PyMOL 2.5.0
@<TRIPOS>MOLECULE
5VSC
27 29 1                 
SMALL
USER_CHARGES
@<TRIPOS>ATOM
1	   N	-1.112	0.810	25.462	N.3	1	SAM1505	0.000	
2	  CA	-0.679	1.788	24.428	C.3	1	SAM1505	0.000	
3	   C	-1.512	1.588	23.193	C.2	1	SAM1505	0.000	
4	   O	-2.484	0.787	23.229	O.co2	1	SAM1505	0.000	
5	  CB	0.811	1.640	24.109	C.3	1	SAM1505	0.000	
6	  CG	1.648	2.412	25.135	C.3	1	SAM1505	0.000	
7	  SD	1.637	4.079	24.953	S.3	1	SAM1505	0.000	
8	  CE	3.220	4.495	24.689	C.3	1	SAM1505	0.000	
9	 C5'	1.235	4.780	26.423	C.3	1	SAM1505	0.000	
10	 C4'	-0.227	4.637	26.868	C.3	1	SAM1505	0.000	
11	 O4'	-0.545	3.286	27.220	O.3	1	SAM1505	0.000	
12	 C3'	-0.551	5.420	28.131	C.3	1	SAM1505	0.000	
13	 O3'	-0.801	6.808	27.880	O.3	1	SAM1505	0.000	
14	 C2'	-1.781	4.690	28.635	C.3	1	SAM1505	0.000	
15	 O2'	-2.910	5.007	27.812	O.3	1	SAM1505	0.000	
16	 C1'	-1.413	3.251	28.369	C.3	1	SAM1505	0.000	
17	 OXT	-1.216	2.252	22.171	O.co2	1	SAM1505	0.000	
18	  N1	-1.408	1.699	33.305	N.2	1	SAM1505	0.000	
19	  C2	-2.417	2.194	32.577	C.2	1	SAM1505	0.000	
20	  N3	-2.262	2.553	31.298	N.2	1	SAM1505	0.000	
21	  C4	-1.042	2.414	30.720	C.2	1	SAM1505	0.000	
22	  C5	0.007	1.889	31.445	C.2	1	SAM1505	0.000	
23	  C6	-0.182	1.534	32.769	C.2	1	SAM1505	0.000	
24	  N6	0.813	1.021	33.527	N.pl3	1	SAM1505	0.000	
25	  N7	1.098	1.869	30.623	N.2	1	SAM1505	0.000	
26	  C8	0.693	2.357	29.430	C.2	1	SAM1505	0.000	
27	  N9	-0.609	2.688	29.489	N.2	1	SAM1505	0.000	
@<TRIPOS>BOND
1 1 2 1
2 2 3 1
3 2 5 1
4 3 4 ar
5 3 17 ar
6 5 6 1
7 6 7 1
8 7 8 1
9 7 9 1
10 9 10 1
11 10 11 1
12 10 12 1
13 11 16 1
14 12 13 1
15 12 14 1
16 14 15 1
17 14 16 1
18 16 27 1
19 18 19 ar
20 18 23 ar
21 19 20 ar
22 20 21 ar
23 21 22 ar
24 21 27 ar
25 22 23 ar
26 22 25 ar
27 23 24 1
28 25 26 ar
29 26 27 ar
@<TRIPOS>SUBSTRUCTURE
1	SAM1505	1	GROUP	1 A	SAM
