# created with PyMOL 2.5.0
@<TRIPOS>MOLECULE
5VSC
27 29 1                 
SMALL
USER_CHARGES
@<TRIPOS>ATOM
1	   N	43.125	0.231	-11.247	N.3	1	SAM1505	0.000	
2	  CA	42.802	1.138	-10.115	C.3	1	SAM1505	0.000	
3	   C	43.602	0.747	-8.897	C.2	1	SAM1505	0.000	
4	   O	44.474	-0.154	-8.994	O.co2	1	SAM1505	0.000	
5	  CB	41.305	1.128	-9.817	C.3	1	SAM1505	0.000	
6	  CG	40.550	2.125	-10.710	C.3	1	SAM1505	0.000	
7	  SD	40.820	3.753	-10.352	S.3	1	SAM1505	0.000	
8	  CE	39.326	4.404	-10.056	C.3	1	SAM1505	0.000	
9	 C5'	41.290	4.559	-11.742	C.3	1	SAM1505	0.000	
10	 C4'	42.732	4.320	-12.209	C.3	1	SAM1505	0.000	
11	 O4'	42.927	2.978	-12.684	O.3	1	SAM1505	0.000	
12	 C3'	43.191	5.181	-13.390	C.3	1	SAM1505	0.000	
13	 O3'	43.627	6.491	-13.002	O.3	1	SAM1505	0.000	
14	 C2'	44.336	4.361	-13.958	C.3	1	SAM1505	0.000	
15	 O2'	45.484	4.452	-13.112	O.3	1	SAM1505	0.000	
16	 C1'	43.785	2.956	-13.834	C.3	1	SAM1505	0.000	
17	 OXT	43.377	1.353	-7.823	O.co2	1	SAM1505	0.000	
18	  N1	43.570	1.950	-18.924	N.2	1	SAM1505	0.000	
19	  C2	44.627	2.239	-18.166	C.2	1	SAM1505	0.000	
20	  N3	44.555	2.478	-16.851	N.2	1	SAM1505	0.000	
21	  C4	43.328	2.425	-16.262	C.2	1	SAM1505	0.000	
22	  C5	42.208	2.137	-17.023	C.2	1	SAM1505	0.000	
23	  C6	42.340	1.894	-18.382	C.2	1	SAM1505	0.000	
24	  N6	41.295	1.602	-19.176	N.pl3	1	SAM1505	0.000	
25	  N7	41.126	2.158	-16.188	N.2	1	SAM1505	0.000	
26	  C8	41.598	2.452	-14.960	C.2	1	SAM1505	0.000	
27	  N9	42.932	2.623	-15.001	N.2	1	SAM1505	0.000	
@<TRIPOS>BOND
1 1 2 1
2 2 3 1
3 2 5 1
4 3 4 ar
5 3 17 ar
6 5 6 1
7 6 7 1
8 7 8 1
9 7 9 1
10 9 10 1
11 10 11 1
12 10 12 1
13 11 16 1
14 12 13 1
15 12 14 1
16 14 15 1
17 14 16 1
18 16 27 1
19 18 19 ar
20 18 23 ar
21 19 20 ar
22 20 21 ar
23 21 22 ar
24 21 27 ar
25 22 23 ar
26 22 25 ar
27 23 24 1
28 25 26 ar
29 26 27 ar
@<TRIPOS>SUBSTRUCTURE
1	SAM1505	1	GROUP	1 B	SAM
