# created with PyMOL 2.4.0
@<TRIPOS>MOLECULE
temp
50 52 1                 
SMALL
USER_CHARGES
@<TRIPOS>ATOM
1	   N	-1.112	0.810	25.462	N.4	1	SAM1	0.000	
2	  CA	-0.679	1.788	24.428	C.3	1	SAM1	0.000	
3	   C	-1.512	1.588	23.193	C.2	1	SAM1	0.000	
4	   O	-2.484	0.787	23.229	O.co2	1	SAM1	0.000	
5	  CB	0.811	1.640	24.109	C.3	1	SAM1	0.000	
6	  CG	1.648	2.412	25.135	C.3	1	SAM1	0.000	
7	  SD	1.637	4.079	24.953	S.3	1	SAM1	0.000	
8	  CE	3.220	4.495	24.689	C.3	1	SAM1	0.000	
9	 C5'	1.235	4.780	26.423	C.3	1	SAM1	0.000	
10	 C4'	-0.227	4.637	26.868	C.3	1	SAM1	0.000	
11	 O4'	-0.545	3.286	27.220	O.3	1	SAM1	0.000	
12	 C3'	-0.551	5.420	28.131	C.3	1	SAM1	0.000	
13	 O3'	-0.801	6.808	27.880	O.3	1	SAM1	0.000	
14	 C2'	-1.781	4.690	28.635	C.3	1	SAM1	0.000	
15	 O2'	-2.910	5.007	27.812	O.3	1	SAM1	0.000	
16	 C1'	-1.413	3.251	28.369	C.3	1	SAM1	0.000	
17	 OXT	-1.216	2.252	22.171	O.co2	1	SAM1	0.000	
18	  N1	-1.408	1.699	33.305	N.2	1	SAM1	0.000	
19	  C2	-2.417	2.194	32.577	C.2	1	SAM1	0.000	
20	  N3	-2.262	2.553	31.298	N.2	1	SAM1	0.000	
21	  C4	-1.042	2.414	30.720	C.2	1	SAM1	0.000	
22	  C5	0.007	1.889	31.445	C.2	1	SAM1	0.000	
23	  C6	-0.182	1.534	32.769	C.2	1	SAM1	0.000	
24	  N6	0.813	1.021	33.527	N.pl3	1	SAM1	0.000	
25	  N7	1.098	1.869	30.623	N.2	1	SAM1	0.000	
26	  C8	0.693	2.357	29.430	C.2	1	SAM1	0.000	
27	  N9	-0.609	2.688	29.489	N.2	1	SAM1	0.000	
28	  HA	-0.825	2.799	24.810	 H	1	SAM1	0.000	
29	 HB1	1.007	2.036	23.112	 H	1	SAM1	0.000	
30	 HB2	1.084	0.585	24.142	 H	1	SAM1	0.000	
31	 HG1	2.680	2.070	25.055	 H	1	SAM1	0.000	
32	 HG2	1.264	2.178	26.128	 H	1	SAM1	0.000	
33	 HE1	3.554	4.070	23.742	 H	1	SAM1	0.000	
34	 HE2	3.838	4.107	25.499	 H	1	SAM1	0.000	
35	 HE3	3.309	5.581	24.652	 H	1	SAM1	0.000	
36	  H1	-0.979	-0.129	25.114	 H	1	SAM1	0.000	
37	  H2	-2.089	0.955	25.675	 H	1	SAM1	0.000	
38	  H2	-3.387	2.307	33.037	 H	1	SAM1	0.000	
39	  H3	-0.562	0.940	26.299	 H	1	SAM1	0.000	
40	  H8	1.322	2.465	28.558	 H	1	SAM1	0.000	
41	 H1'	-2.313	2.650	28.238	 H	1	SAM1	0.000	
42	 H2'	-2.035	4.929	29.667	 H	1	SAM1	0.000	
43	 H2'	-3.089	5.945	27.914	 H	1	SAM1	0.000	
44	 H3'	0.270	5.449	28.847	 H	1	SAM1	0.000	
45	 H3'	-1.037	7.216	28.716	 H	1	SAM1	0.000	
46	 H4'	-0.791	5.003	26.010	 H	1	SAM1	0.000	
47	 H61	1.732	0.885	33.130	 H	1	SAM1	0.000	
48	 H62	0.638	0.773	34.490	 H	1	SAM1	0.000	
49	H5'1	1.459	5.845	26.355	 H	1	SAM1	0.000	
50	H5'2	1.862	4.325	27.190	 H	1	SAM1	0.000	
@<TRIPOS>BOND
1 1 2 1
2 1 36 1
3 1 37 1
4 1 39 1
5 2 3 1
6 2 5 1
7 2 28 1
8 3 4 ar
9 3 17 ar
10 5 6 1
11 5 29 1
12 5 30 1
13 6 7 1
14 6 31 1
15 6 32 1
16 7 8 1
17 7 9 1
18 8 33 1
19 8 34 1
20 8 35 1
21 9 10 1
22 9 49 1
23 9 50 1
24 10 11 1
25 10 12 1
26 10 46 1
27 11 16 1
28 12 13 1
29 12 14 1
30 12 44 1
31 13 45 1
32 14 15 1
33 14 16 1
34 14 42 1
35 15 43 1
36 16 27 1
37 16 41 1
38 18 19 ar
39 18 23 ar
40 19 20 ar
41 19 38 1
42 20 21 ar
43 21 22 ar
44 21 27 ar
45 22 23 ar
46 22 25 ar
47 23 24 1
48 24 47 1
49 24 48 1
50 25 26 ar
51 26 27 ar
52 26 40 1
@<TRIPOS>SUBSTRUCTURE
1	SAM1	1	GROUP	1 A	SAM
