# created with PyMOL 2.5.2
@<TRIPOS>MOLECULE
for_leap
17 17 1                 
SMALL
USER_CHARGES
@<TRIPOS>ATOM
1	  C1	20.714	32.133	42.932	C.2	1	DNC2	0.000	
2	  N1	18.696	30.792	40.118	N.2	1	DNC2	0.000	
3	  O1	22.047	32.296	43.218	O.3	1	DNC2	0.000	
4	  C2	20.383	31.583	41.706	C.2	1	DNC2	0.000	
5	  N2	17.349	32.541	44.441	N.2	1	DNC2	0.000	
6	  O2	21.408	31.231	40.862	O.2	1	DNC2	0.000	
7	  C3	19.058	31.357	41.380	C.2	1	DNC2	0.000	
8	  O3	17.458	30.478	39.884	O.2	1	DNC2	0.000	
9	  C4	18.045	31.693	42.275	C.2	1	DNC2	0.000	
10	  O4	19.577	30.593	39.203	O.2	1	DNC2	0.000	
11	  C5	18.382	32.248	43.504	C.2	1	DNC2	0.000	
12	  O5	17.676	32.908	45.629	O.2	1	DNC2	0.000	
13	  C6	19.716	32.461	43.845	C.2	1	DNC2	0.000	
14	  O6	16.093	32.347	44.160	O.2	1	DNC2	0.000	
15	 H01	22.402	31.476	43.568	 H	1	DNC2	0.000	
16	  H4	17.010	31.524	42.017	 H	1	DNC2	0.000	
17	  H6	19.973	32.876	44.808	 H	1	DNC2	0.000	
@<TRIPOS>BOND
1 1 3 1
2 1 4 ar
3 1 13 ar
4 2 7 1
5 2 8 ar
6 2 10 ar
7 3 15 1
8 4 6 1
9 4 7 ar
10 5 11 1
11 5 12 ar
12 5 14 ar
13 7 9 ar
14 9 11 ar
15 9 16 1
16 11 13 ar
17 13 17 1
@<TRIPOS>SUBSTRUCTURE
1	DNC2	1	GROUP	1 C	DNC
