# created with PyMOL 2.5.2
@<TRIPOS>MOLECULE
for_leap
17 17 1                 
SMALL
USER_CHARGES
@<TRIPOS>ATOM
1	  C1	19.908	48.796	66.795	C.2	1	DNC2	0.000	
2	  N1	17.799	49.789	69.699	N.2	1	DNC2	0.000	
3	  O1	21.240	48.787	66.456	O.3	1	DNC2	0.000	
4	  C2	19.531	49.274	68.041	C.2	1	DNC2	0.000	
5	  N2	16.578	48.014	65.357	N.2	1	DNC2	0.000	
6	  O2	20.508	49.709	68.890	O.2	1	DNC2	0.000	
7	  C3	18.193	49.312	68.411	C.2	1	DNC2	0.000	
8	  O3	16.540	49.832	70.009	O.2	1	DNC2	0.000	
9	  C4	17.218	48.884	67.528	C.2	1	DNC2	0.000	
10	  O4	18.684	50.162	70.564	O.2	1	DNC2	0.000	
11	  C5	17.600	48.419	66.282	C.2	1	DNC2	0.000	
12	  O5	16.889	47.651	64.148	O.2	1	DNC2	0.000	
13	  C6	18.936	48.369	65.904	C.2	1	DNC2	0.000	
14	  O6	15.329	48.081	65.717	O.2	1	DNC2	0.000	
15	 H01	21.505	49.666	66.175	 H	1	DNC2	0.000	
16	  H4	16.175	48.912	67.807	 H	1	DNC2	0.000	
17	  H6	19.214	48.002	64.927	 H	1	DNC2	0.000	
@<TRIPOS>BOND
1 1 3 1
2 1 4 ar
3 1 13 ar
4 2 7 1
5 2 8 ar
6 2 10 ar
7 3 15 1
8 4 6 1
9 4 7 ar
10 5 11 1
11 5 12 ar
12 5 14 ar
13 7 9 ar
14 9 11 ar
15 9 16 1
16 11 13 ar
17 13 17 1
@<TRIPOS>SUBSTRUCTURE
1	DNC2	1	GROUP	1 D	DNC
