@<TRIPOS>MOLECULE
5FHR.A
17 17 1 0 0 
SMALL
USER_CHARGES


@<TRIPOS>ATOM
  1 C1      20.7140    32.1330    42.9320 C.ar  1 DNC   0.0825 
  2 N1      18.6960    30.7920    40.1180 N.pl3 1 DNC   0.9070 
  3 O1      22.0470    32.2960    43.2180 O.3   1 DNC  -0.5325 
  4 H1      22.6474    32.0373    42.5150 H     1 DNC   0.4500 
  5 C2      20.3830    31.5830    41.7060 C.ar  1 DNC  -0.1710 
  6 N2      17.3490    32.5410    44.4410 N.pl3 1 DNC   0.9070 
  7 O2      21.4080    31.2310    40.8620 O.3   1 DNC  -0.8290 
  8 C3      19.0580    31.3570    41.3800 C.ar  1 DNC   0.1330 
  9 O3      17.4580    30.4780    39.8840 O.2   1 DNC  -0.5200 
 10 C4      18.0450    31.6930    42.2750 C.ar  1 DNC  -0.1500 
 11 H4      17.0099    31.5243    42.0171 H     1 DNC   0.1500 
 12 O4      19.5770    30.5930    39.2030 O.2   1 DNC  -0.5200 
 13 C5      18.3820    32.2480    43.5040 C.ar  1 DNC   0.1330 
 14 O5      17.6760    32.9080    45.6290 O.2   1 DNC  -0.5200 
 15 C6      19.7160    32.4610    43.8450 C.ar  1 DNC  -0.1500 
 16 H6      19.9731    32.8765    44.8082 H     1 DNC   0.1500 
 17 O6      16.0930    32.3470    44.1600 O.2   1 DNC  -0.5200 
@<TRIPOS>BOND
  1   1   3  1   
  2   1   5  ar  
  3   1  15  ar  
  4   2   8  1   
  5   2   9  2   
  6   2  12  2   
  7   3   4  1   
  8   5   7  1   
  9   5   8  ar  
 10   6  13  1   
 11   6  14  2   
 12   6  17  2   
 13   8  10  ar  
 14  10  11  1   
 15  10  13  ar  
 16  13  15  ar  
 17  15  16  1   
@<TRIPOS>SUBSTRUCTURE
  1 DNC  10 GROUP 4 A **** 0

# MOE 2022.02 (io_trps.svl 2020.11)
