@<TRIPOS>MOLECULE
5FHR.B
17 17 1 0 0 
SMALL
USER_CHARGES


@<TRIPOS>ATOM
  1 C1      19.9080    48.7960    66.7950 C.ar  1 DNC   0.0825 
  2 N1      17.7990    49.7890    69.6990 N.pl3 1 DNC   0.9070 
  3 O1      21.2400    48.7870    66.4560 O.3   1 DNC  -0.5325 
  4 H1      21.8350    49.1014    67.1406 H     1 DNC   0.4500 
  5 C2      19.5310    49.2740    68.0410 C.ar  1 DNC  -0.1710 
  6 N2      16.5780    48.0140    65.3570 N.pl3 1 DNC   0.9070 
  7 O2      20.5080    49.7090    68.8900 O.3   1 DNC  -0.8290 
  8 C3      18.1930    49.3120    68.4110 C.ar  1 DNC   0.1330 
  9 O3      16.5400    49.8320    70.0090 O.2   1 DNC  -0.5200 
 10 C4      17.2180    48.8840    67.5280 C.ar  1 DNC  -0.1500 
 11 H4      16.1750    48.9123    67.8067 H     1 DNC   0.1500 
 12 O4      18.6840    50.1620    70.5640 O.2   1 DNC  -0.5200 
 13 C5      17.6000    48.4190    66.2820 C.ar  1 DNC   0.1330 
 14 O5      16.8890    47.6510    64.1480 O.2   1 DNC  -0.5200 
 15 C6      18.9360    48.3690    65.9040 C.ar  1 DNC  -0.1500 
 16 H6      19.2139    48.0016    64.9272 H     1 DNC   0.1500 
 17 O6      15.3290    48.0810    65.7170 O.2   1 DNC  -0.5200 
@<TRIPOS>BOND
  1   1   3  1   
  2   1   5  ar  
  3   1  15  ar  
  4   2   8  1   
  5   2   9  2   
  6   2  12  2   
  7   3   4  1   
  8   5   7  1   
  9   5   8  ar  
 10   6  13  1   
 11   6  14  2   
 12   6  17  2   
 13   8  10  ar  
 14  10  11  1   
 15  10  13  ar  
 16  13  15  ar  
 17  15  16  1   
@<TRIPOS>SUBSTRUCTURE
  1 DNC  10 GROUP 4 B **** 0

# MOE 2022.02 (io_trps.svl 2020.11)
