@<TRIPOS>MOLECULE
5FHR.A
51 53 1 0 0 
SMALL
USER_CHARGES


@<TRIPOS>ATOM
  1 N       26.4100    33.6170    37.2910 N.4   1 SAM  -0.8530 
  2 H1      26.3798    33.2168    38.2178 H     1 SAM   0.4500 
  3 H2      27.3678    33.8202    37.0430 H     1 SAM   0.4500 
  4 H3      26.0226    32.9607    36.6282 H     1 SAM   0.4500 
  5 CA      25.6350    34.8410    37.2680 C.3   1 SAM   0.3170 
  6 HA      25.6781    35.2590    36.2623 H     1 SAM   0.0800 
  7 C       26.2260    35.7620    38.2960 C.2   1 SAM   0.9060 
  8 O       26.2950    36.9830    38.0390 O.co2 1 SAM  -0.9000 
  9 CB      24.1490    34.6170    37.5860 C.3   1 SAM  -0.1600 
 10 HB1     23.6343    35.5778    37.5892 H     1 SAM   0.0800 
 11 HB2     24.0586    34.1531    38.5682 H     1 SAM   0.0800 
 12 CG      23.5050    33.7030    36.5350 C.3   1 SAM  -0.1525 
 13 HG1     23.9837    32.7244    36.5709 H     1 SAM   0.0800 
 14 HG2     23.6458    34.1403    35.5465 H     1 SAM   0.0800 
 15 SD      21.7410    33.5100    36.8500 S.3   1 SAM   0.9775 
 16 CE      21.6450    32.8920    38.5050 C.3   1 SAM  -0.2325 
 17 HE1     21.9663    33.6666    39.2013 H     1 SAM   0.0800 
 18 HE2     22.2930    32.0213    38.6059 H     1 SAM   0.0800 
 19 HE3     20.6166    32.6073    38.7275 H     1 SAM   0.0800 
 20 C5'     21.1740    32.0910    35.8710 C.3   1 SAM  -0.1525 
 21 H5'1    20.1069    31.9649    36.0539 H     1 SAM   0.0800 
 22 H5'2    21.7095    31.2088    36.2217 H     1 SAM   0.0800 
 23 C4'     21.3820    32.1940    34.3480 C.3   1 SAM   0.2000 
 24 H4'     22.3504    32.6925    34.3916 H     1 SAM   0.0800 
 25 O4'     21.4820    31.0080    33.5720 O.3   1 SAM  -0.5600 
 26 C3'     20.2950    32.9350    33.6320 C.3   1 SAM   0.2000 
 27 H3'     19.4899    33.2668    34.2876 H     1 SAM   0.0800 
 28 O3'     20.8600    34.0830    33.0640 O.3   1 SAM  -0.6800 
 29 H3'     20.1691    34.5342    32.5734 H     1 SAM   0.4000 
 30 C2'     19.7010    31.9890    32.6220 C.3   1 SAM   0.2000 
 31 H2'     18.8295    31.4730    33.0250 H     1 SAM   0.0800 
 32 O2'     19.1680    32.5910    31.4880 O.3   1 SAM  -0.6800 
 33 H2'     18.8304    31.8939    30.9208 H     1 SAM   0.4000 
 34 C1'     20.8540    31.0960    32.2980 C.3   1 SAM   0.5691 
 35 H1'     21.3735    31.5210    31.4392 H     1 SAM   0.0800 
 36 OXT     26.6190    35.3200    39.3860 O.co2 1 SAM  -0.9000 
 37 N1      22.3850    27.2820    29.1610 N.2   1 SAM  -0.6610 
 38 C2      22.7660    28.5480    29.1890 C.2   1 SAM   0.6010 
 39 H2      23.5277    28.8644    28.4918 H     1 SAM   0.0600 
 40 N3      22.2730    29.4450    30.0150 N.2   1 SAM  -0.6610 
 41 C4      21.3280    29.0650    30.8870 C.2   1 SAM   0.5000 
 42 C5      20.8570    27.7020    30.9110 C.2   1 SAM   0.4500 
 43 C6      21.4280    26.8050    29.9840 C.2   1 SAM   0.6110 
 44 N6      20.9960    25.4620    29.9430 N.2   1 SAM  -0.2000 
 45 H62     21.4050    24.8200    29.2792 H     1 SAM   0.4000 
 46 H61     20.2779    25.1429    30.5775 H     1 SAM   0.4000 
 47 N7      19.8830    27.5710    31.9020 N.2   1 SAM  -0.6960 
 48 C8      19.7810    28.7940    32.4580 C.3   1 SAM   0.4551 
 49 H81     20.0357    28.7173    33.5150 H     1 SAM   0.0800 
 50 H82     18.7514    29.1369    32.3563 H     1 SAM   0.0800 
 51 N9      20.6120    29.7220    31.8730 N.pl3 1 SAM  -0.7882 
@<TRIPOS>BOND
  1   1   2  1   
  2   1   3  1   
  3   1   4  1   
  4   1   5  1   
  5   5   6  1   
  6   5   7  1   
  7   5   9  1   
  8   7   8  ar  
  9   7  36  ar  
 10   9  10  1   
 11   9  11  1   
 12   9  12  1   
 13  12  13  1   
 14  12  14  1   
 15  12  15  1   
 16  15  16  1   
 17  15  20  1   
 18  16  17  1   
 19  16  18  1   
 20  16  19  1   
 21  20  21  1   
 22  20  22  1   
 23  20  23  1   
 24  23  24  1   
 25  23  25  1   
 26  23  26  1   
 27  25  34  1   
 28  26  27  1   
 29  26  28  1   
 30  26  30  1   
 31  28  29  1   
 32  30  31  1   
 33  30  32  1   
 34  30  34  1   
 35  32  33  1   
 36  34  35  1   
 37  34  51  1   
 38  37  38  2   
 39  37  43  1   
 40  38  39  1   
 41  38  40  1   
 42  40  41  2   
 43  41  42  1   
 44  41  51  1   
 45  42  43  1   
 46  42  47  2   
 47  43  44  2   
 48  44  45  1   
 49  44  46  1   
 50  47  48  1   
 51  48  49  1   
 52  48  50  1   
 53  48  51  1   
@<TRIPOS>SUBSTRUCTURE
  1 SAM  25 GROUP 4 A **** 0

# MOE 2022.02 (io_trps.svl 2020.11)
