# created with PyMOL 2.5.0
@<TRIPOS>MOLECULE
5FHR
27 29 1                 
SMALL
USER_CHARGES
@<TRIPOS>ATOM
1	   N	25.910	48.033	72.225	N.3	1	SAM303	0.000	
2	  CA	25.342	46.694	72.305	C.3	1	SAM303	0.000	
3	   C	25.994	45.834	71.236	C.2	1	SAM303	0.000	
4	   O	26.280	44.627	71.472	O.co2	1	SAM303	0.000	
5	  CB	23.840	46.687	72.077	C.3	1	SAM303	0.000	
6	  CG	23.122	47.576	73.098	C.3	1	SAM303	0.000	
7	  SD	21.320	47.494	72.889	S.3	1	SAM303	0.000	
8	  CE	21.070	48.051	71.226	C.3	1	SAM303	0.000	
9	 C5'	20.572	48.768	73.952	C.3	1	SAM303	0.000	
10	 C4'	20.811	48.669	75.467	C.3	1	SAM303	0.000	
11	 O4'	20.809	49.838	76.263	O.3	1	SAM303	0.000	
12	 C3'	19.780	47.835	76.181	C.3	1	SAM303	0.000	
13	 O3'	20.428	46.705	76.674	O.3	1	SAM303	0.000	
14	 C2'	19.150	48.692	77.249	C.3	1	SAM303	0.000	
15	 O2'	18.763	47.991	78.406	O.3	1	SAM303	0.000	
16	 C1'	20.236	49.680	77.551	C.3	1	SAM303	0.000	
17	 OXT	26.275	46.307	70.113	O.co2	1	SAM303	0.000	
18	  N1	21.468	53.677	80.536	N.2	1	SAM303	0.000	
19	  C2	21.996	52.467	80.467	C.2	1	SAM303	0.000	
20	  N3	21.572	51.518	79.678	N.2	1	SAM303	0.000	
21	  C4	20.541	51.780	78.875	C.2	1	SAM303	0.000	
22	  C5	19.914	53.061	78.882	C.2	1	SAM303	0.000	
23	  C6	20.427	54.015	79.775	C.2	1	SAM303	0.000	
24	  N6	19.857	55.278	79.826	N.pl3	1	SAM303	0.000	
25	  N7	18.867	53.058	77.950	N.2	1	SAM303	0.000	
26	  C8	18.880	51.830	77.425	C.2	1	SAM303	0.000	
27	  N9	19.842	51.023	77.966	N.2	1	SAM303	0.000	
@<TRIPOS>BOND
1 1 2 1
2 2 3 1
3 2 5 1
4 3 4 ar
5 3 17 ar
6 5 6 1
7 6 7 1
8 7 8 1
9 7 9 1
10 9 10 1
11 10 11 1
12 10 12 1
13 11 16 1
14 12 13 1
15 12 14 1
16 14 15 1
17 14 16 1
18 16 27 1
19 18 19 ar
20 18 23 ar
21 19 20 ar
22 20 21 ar
23 21 22 ar
24 21 27 ar
25 22 23 ar
26 22 25 ar
27 23 24 1
28 25 26 ar
29 26 27 ar
@<TRIPOS>SUBSTRUCTURE
1	SAM303	1	GROUP	1 B	SAM
