# created with PyMOL 2.4.0
@<TRIPOS>MOLECULE
temp
50 52 1                 
SMALL
USER_CHARGES
@<TRIPOS>ATOM
1	   N	25.910	48.033	72.225	N.4	1	SAM1	0.000	
2	  CA	25.342	46.694	72.305	C.3	1	SAM1	0.000	
3	   C	25.994	45.834	71.236	C.2	1	SAM1	0.000	
4	   O	26.280	44.627	71.472	O.co2	1	SAM1	0.000	
5	  CB	23.840	46.687	72.077	C.3	1	SAM1	0.000	
6	  CG	23.122	47.576	73.098	C.3	1	SAM1	0.000	
7	  SD	21.320	47.494	72.889	S.3	1	SAM1	0.000	
8	  CE	21.070	48.051	71.226	C.3	1	SAM1	0.000	
9	 C5'	20.572	48.768	73.952	C.3	1	SAM1	0.000	
10	 C4'	20.811	48.669	75.467	C.3	1	SAM1	0.000	
11	 O4'	20.809	49.838	76.263	O.3	1	SAM1	0.000	
12	 C3'	19.780	47.835	76.181	C.3	1	SAM1	0.000	
13	 O3'	20.428	46.705	76.674	O.3	1	SAM1	0.000	
14	 C2'	19.150	48.692	77.249	C.3	1	SAM1	0.000	
15	 O2'	18.763	47.991	78.406	O.3	1	SAM1	0.000	
16	 C1'	20.236	49.680	77.551	C.3	1	SAM1	0.000	
17	 OXT	26.275	46.307	70.113	O.co2	1	SAM1	0.000	
18	  N1	21.468	53.677	80.536	N.2	1	SAM1	0.000	
19	  C2	21.996	52.467	80.467	C.2	1	SAM1	0.000	
20	  N3	21.572	51.518	79.678	N.2	1	SAM1	0.000	
21	  C4	20.541	51.780	78.875	C.2	1	SAM1	0.000	
22	  C5	19.914	53.061	78.882	C.2	1	SAM1	0.000	
23	  C6	20.427	54.015	79.775	C.2	1	SAM1	0.000	
24	  N6	19.857	55.278	79.826	N.pl3	1	SAM1	0.000	
25	  N7	18.867	53.058	77.950	N.2	1	SAM1	0.000	
26	  C8	18.880	51.830	77.425	C.2	1	SAM1	0.000	
27	  N9	19.842	51.023	77.966	N.2	1	SAM1	0.000	
28	  HA	25.529	46.310	73.308	 H	1	SAM1	0.000	
29	 HB1	23.470	45.666	72.172	 H	1	SAM1	0.000	
30	 HB2	23.631	47.057	71.073	 H	1	SAM1	0.000	
31	 HG1	23.449	48.607	72.964	 H	1	SAM1	0.000	
32	 HG2	23.379	47.242	74.103	 H	1	SAM1	0.000	
33	 HE1	21.498	47.327	70.532	 H	1	SAM1	0.000	
34	 HE2	21.556	49.017	71.089	 H	1	SAM1	0.000	
35	 HE3	20.002	48.151	71.033	 H	1	SAM1	0.000	
36	  H1	25.749	48.412	71.303	 H	1	SAM1	0.000	
37	  H2	26.903	47.988	72.402	 H	1	SAM1	0.000	
38	  H2	22.837	52.249	81.108	 H	1	SAM1	0.000	
39	  H3	25.471	48.627	72.914	 H	1	SAM1	0.000	
40	  H8	18.199	51.507	76.651	 H	1	SAM1	0.000	
41	 H1'	20.831	49.305	78.383	 H	1	SAM1	0.000	
42	 H2'	18.213	49.132	76.909	 H	1	SAM1	0.000	
43	 H2'	18.107	47.340	78.145	 H	1	SAM1	0.000	
44	 H3'	18.974	47.492	75.533	 H	1	SAM1	0.000	
45	 H3'	19.782	46.190	77.162	 H	1	SAM1	0.000	
46	 H4'	21.821	48.264	75.406	 H	1	SAM1	0.000	
47	 H61	19.079	55.506	79.224	 H	1	SAM1	0.000	
48	 H62	20.220	55.970	80.466	 H	1	SAM1	0.000	
49	H5'1	19.495	48.735	73.790	 H	1	SAM1	0.000	
50	H5'2	20.959	49.733	73.624	 H	1	SAM1	0.000	
@<TRIPOS>BOND
1 1 2 1
2 1 36 1
3 1 37 1
4 1 39 1
5 2 3 1
6 2 5 1
7 2 28 1
8 3 4 ar
9 3 17 ar
10 5 6 1
11 5 29 1
12 5 30 1
13 6 7 1
14 6 31 1
15 6 32 1
16 7 8 1
17 7 9 1
18 8 33 1
19 8 34 1
20 8 35 1
21 9 10 1
22 9 49 1
23 9 50 1
24 10 11 1
25 10 12 1
26 10 46 1
27 11 16 1
28 12 13 1
29 12 14 1
30 12 44 1
31 13 45 1
32 14 15 1
33 14 16 1
34 14 42 1
35 15 43 1
36 16 27 1
37 16 41 1
38 18 19 ar
39 18 23 ar
40 19 20 ar
41 19 38 1
42 20 21 ar
43 21 22 ar
44 21 27 ar
45 22 23 ar
46 22 25 ar
47 23 24 1
48 24 47 1
49 24 48 1
50 25 26 ar
51 26 27 ar
52 26 40 1
@<TRIPOS>SUBSTRUCTURE
1	SAM1	1	GROUP	1 B	SAM
