# created with PyMOL 2.5.0
@<TRIPOS>MOLECULE
5FHR
27 29 1                 
SMALL
USER_CHARGES
@<TRIPOS>ATOM
1	   N	26.410	33.617	37.291	N.3	1	SAM303	0.000	
2	  CA	25.635	34.841	37.268	C.3	1	SAM303	0.000	
3	   C	26.226	35.762	38.296	C.2	1	SAM303	0.000	
4	   O	26.295	36.983	38.039	O.co2	1	SAM303	0.000	
5	  CB	24.149	34.617	37.586	C.3	1	SAM303	0.000	
6	  CG	23.505	33.703	36.535	C.3	1	SAM303	0.000	
7	  SD	21.741	33.510	36.850	S.3	1	SAM303	0.000	
8	  CE	21.645	32.892	38.505	C.3	1	SAM303	0.000	
9	 C5'	21.174	32.091	35.871	C.3	1	SAM303	0.000	
10	 C4'	21.382	32.194	34.348	C.3	1	SAM303	0.000	
11	 O4'	21.482	31.008	33.572	O.3	1	SAM303	0.000	
12	 C3'	20.295	32.935	33.632	C.3	1	SAM303	0.000	
13	 O3'	20.860	34.083	33.064	O.3	1	SAM303	0.000	
14	 C2'	19.701	31.989	32.622	C.3	1	SAM303	0.000	
15	 O2'	19.168	32.591	31.488	O.3	1	SAM303	0.000	
16	 C1'	20.854	31.096	32.298	C.3	1	SAM303	0.000	
17	 OXT	26.619	35.320	39.386	O.co2	1	SAM303	0.000	
18	  N1	22.385	27.282	29.161	N.2	1	SAM303	0.000	
19	  C2	22.766	28.548	29.189	C.2	1	SAM303	0.000	
20	  N3	22.273	29.445	30.015	N.2	1	SAM303	0.000	
21	  C4	21.328	29.065	30.887	C.2	1	SAM303	0.000	
22	  C5	20.857	27.702	30.911	C.2	1	SAM303	0.000	
23	  C6	21.428	26.805	29.984	C.2	1	SAM303	0.000	
24	  N6	20.996	25.462	29.943	N.pl3	1	SAM303	0.000	
25	  N7	19.883	27.571	31.902	N.2	1	SAM303	0.000	
26	  C8	19.781	28.794	32.458	C.2	1	SAM303	0.000	
27	  N9	20.612	29.722	31.873	N.2	1	SAM303	0.000	
@<TRIPOS>BOND
1 1 2 1
2 2 3 1
3 2 5 1
4 3 4 ar
5 3 17 ar
6 5 6 1
7 6 7 1
8 7 8 1
9 7 9 1
10 9 10 1
11 10 11 1
12 10 12 1
13 11 16 1
14 12 13 1
15 12 14 1
16 14 15 1
17 14 16 1
18 16 27 1
19 18 19 ar
20 18 23 ar
21 19 20 ar
22 20 21 ar
23 21 22 ar
24 21 27 ar
25 22 23 ar
26 22 25 ar
27 23 24 1
28 25 26 ar
29 26 27 ar
@<TRIPOS>SUBSTRUCTURE
1	SAM303	1	GROUP	1 A	SAM
