@<TRIPOS>MOLECULE
5FHR.B
51 53 1 0 0 
SMALL
USER_CHARGES


@<TRIPOS>ATOM
  1 N       25.9100    48.0330    72.2250 N.4   1 SAM  -0.8530 
  2 H1      25.7494    48.4123    71.3028 H     1 SAM   0.4500 
  3 H2      26.9033    47.9885    72.4025 H     1 SAM   0.4500 
  4 H3      25.4711    48.6266    72.9143 H     1 SAM   0.4500 
  5 CA      25.3420    46.6940    72.3050 C.3   1 SAM   0.3170 
  6 HA      25.5290    46.3095    73.3076 H     1 SAM   0.0800 
  7 C       25.9940    45.8340    71.2360 C.2   1 SAM   0.9060 
  8 O       26.2800    44.6270    71.4720 O.co2 1 SAM  -0.9000 
  9 CB      23.8400    46.6870    72.0770 C.3   1 SAM  -0.1600 
 10 HB1     23.4704    45.6660    72.1720 H     1 SAM   0.0800 
 11 HB2     23.6307    47.0572    71.0734 H     1 SAM   0.0800 
 12 CG      23.1220    47.5760    73.0980 C.3   1 SAM  -0.1525 
 13 HG1     23.4488    48.6071    72.9635 H     1 SAM   0.0800 
 14 HG2     23.3788    47.2416    74.1032 H     1 SAM   0.0800 
 15 SD      21.3200    47.4940    72.8890 S.3   1 SAM   0.9775 
 16 CE      21.0700    48.0510    71.2260 C.3   1 SAM  -0.2325 
 17 HE1     21.4981    47.3274    70.5323 H     1 SAM   0.0800 
 18 HE2     21.5562    49.0170    71.0894 H     1 SAM   0.0800 
 19 HE3     20.0019    48.1513    71.0331 H     1 SAM   0.0800 
 20 C5'     20.5720    48.7680    73.9520 C.3   1 SAM  -0.1525 
 21 H5'1    19.4946    48.7347    73.7901 H     1 SAM   0.0800 
 22 H5'2    20.9590    49.7329    73.6243 H     1 SAM   0.0800 
 23 C4'     20.8110    48.6690    75.4670 C.3   1 SAM   0.2000 
 24 H4'     21.8212    48.2642    75.4056 H     1 SAM   0.0800 
 25 O4'     20.8090    49.8380    76.2630 O.3   1 SAM  -0.5600 
 26 C3'     19.7800    47.8350    76.1810 C.3   1 SAM   0.2000 
 27 H3'     18.9736    47.4923    75.5326 H     1 SAM   0.0800 
 28 O3'     20.4280    46.7050    76.6740 O.3   1 SAM  -0.6800 
 29 H3'     19.7818    46.1898    77.1624 H     1 SAM   0.4000 
 30 C2'     19.1500    48.6920    77.2490 C.3   1 SAM   0.2000 
 31 H2'     18.2129    49.1324    76.9085 H     1 SAM   0.0800 
 32 O2'     18.7630    47.9910    78.4060 O.3   1 SAM  -0.6800 
 33 H2'     18.3946    48.6285    79.0220 H     1 SAM   0.4000 
 34 C1'     20.2360    49.6800    77.5510 C.3   1 SAM   0.5691 
 35 H1'     20.8315    49.3046    78.3832 H     1 SAM   0.0800 
 36 OXT     26.2750    46.3070    70.1130 O.co2 1 SAM  -0.9000 
 37 N1      21.4680    53.6770    80.5360 N.2   1 SAM  -0.6610 
 38 C2      21.9960    52.4670    80.4670 C.2   1 SAM   0.6010 
 39 H2      22.8370    52.2486    81.1084 H     1 SAM   0.0600 
 40 N3      21.5720    51.5180    79.6780 N.2   1 SAM  -0.6610 
 41 C4      20.5410    51.7800    78.8750 C.2   1 SAM   0.5000 
 42 C5      19.9140    53.0610    78.8820 C.2   1 SAM   0.4500 
 43 C6      20.4270    54.0150    79.7750 C.2   1 SAM   0.6110 
 44 N6      19.8570    55.2780    79.8260 N.2   1 SAM  -0.2000 
 45 H62     20.2199    55.9704    80.4656 H     1 SAM   0.4000 
 46 H61     19.0789    55.5056    79.2236 H     1 SAM   0.4000 
 47 N7      18.8670    53.0580    77.9500 N.2   1 SAM  -0.6960 
 48 C8      18.8800    51.8300    77.4250 C.3   1 SAM   0.4551 
 49 H81     19.0603    51.9133    76.3532 H     1 SAM   0.0800 
 50 H82     17.9064    51.3703    77.5950 H     1 SAM   0.0800 
 51 N9      19.8420    51.0230    77.9660 N.pl3 1 SAM  -0.7882 
@<TRIPOS>BOND
  1   1   2  1   
  2   1   3  1   
  3   1   4  1   
  4   1   5  1   
  5   5   6  1   
  6   5   7  1   
  7   5   9  1   
  8   7   8  ar  
  9   7  36  ar  
 10   9  10  1   
 11   9  11  1   
 12   9  12  1   
 13  12  13  1   
 14  12  14  1   
 15  12  15  1   
 16  15  16  1   
 17  15  20  1   
 18  16  17  1   
 19  16  18  1   
 20  16  19  1   
 21  20  21  1   
 22  20  22  1   
 23  20  23  1   
 24  23  24  1   
 25  23  25  1   
 26  23  26  1   
 27  25  34  1   
 28  26  27  1   
 29  26  28  1   
 30  26  30  1   
 31  28  29  1   
 32  30  31  1   
 33  30  32  1   
 34  30  34  1   
 35  32  33  1   
 36  34  35  1   
 37  34  51  1   
 38  37  38  2   
 39  37  43  1   
 40  38  39  1   
 41  38  40  1   
 42  40  41  2   
 43  41  42  1   
 44  41  51  1   
 45  42  43  1   
 46  42  47  2   
 47  43  44  2   
 48  44  45  1   
 49  44  46  1   
 50  47  48  1   
 51  48  49  1   
 52  48  50  1   
 53  48  51  1   
@<TRIPOS>SUBSTRUCTURE
  1 SAM  25 GROUP 4 B **** 0

# MOE 2022.02 (io_trps.svl 2020.11)
