# created with PyMOL 2.4.0
@<TRIPOS>MOLECULE
temp
50 52 1                 
SMALL
USER_CHARGES
@<TRIPOS>ATOM
1	   N	26.410	33.617	37.291	N.4	1	SAM1	0.000	
2	  CA	25.635	34.841	37.268	C.3	1	SAM1	0.000	
3	   C	26.226	35.762	38.296	C.2	1	SAM1	0.000	
4	   O	26.295	36.983	38.039	O.co2	1	SAM1	0.000	
5	  CB	24.149	34.617	37.586	C.3	1	SAM1	0.000	
6	  CG	23.505	33.703	36.535	C.3	1	SAM1	0.000	
7	  SD	21.741	33.510	36.850	S.3	1	SAM1	0.000	
8	  CE	21.645	32.892	38.505	C.3	1	SAM1	0.000	
9	 C5'	21.174	32.091	35.871	C.3	1	SAM1	0.000	
10	 C4'	21.382	32.194	34.348	C.3	1	SAM1	0.000	
11	 O4'	21.482	31.008	33.572	O.3	1	SAM1	0.000	
12	 C3'	20.295	32.935	33.632	C.3	1	SAM1	0.000	
13	 O3'	20.860	34.083	33.064	O.3	1	SAM1	0.000	
14	 C2'	19.701	31.989	32.622	C.3	1	SAM1	0.000	
15	 O2'	19.168	32.591	31.488	O.3	1	SAM1	0.000	
16	 C1'	20.854	31.096	32.298	C.3	1	SAM1	0.000	
17	 OXT	26.619	35.320	39.386	O.co2	1	SAM1	0.000	
18	  N1	22.385	27.282	29.161	N.2	1	SAM1	0.000	
19	  C2	22.766	28.548	29.189	C.2	1	SAM1	0.000	
20	  N3	22.273	29.445	30.015	N.2	1	SAM1	0.000	
21	  C4	21.328	29.065	30.887	C.2	1	SAM1	0.000	
22	  C5	20.857	27.702	30.911	C.2	1	SAM1	0.000	
23	  C6	21.428	26.805	29.984	C.2	1	SAM1	0.000	
24	  N6	20.996	25.462	29.943	N.pl3	1	SAM1	0.000	
25	  N7	19.883	27.571	31.902	N.2	1	SAM1	0.000	
26	  C8	19.781	28.794	32.458	C.2	1	SAM1	0.000	
27	  N9	20.612	29.722	31.873	N.2	1	SAM1	0.000	
28	  HA	25.678	35.259	36.262	 H	1	SAM1	0.000	
29	 HB1	23.634	35.578	37.589	 H	1	SAM1	0.000	
30	 HB2	24.059	34.153	38.568	 H	1	SAM1	0.000	
31	 HG1	23.984	32.724	36.571	 H	1	SAM1	0.000	
32	 HG2	23.646	34.140	35.547	 H	1	SAM1	0.000	
33	 HE1	21.966	33.667	39.201	 H	1	SAM1	0.000	
34	 HE2	22.293	32.021	38.606	 H	1	SAM1	0.000	
35	 HE3	20.617	32.607	38.728	 H	1	SAM1	0.000	
36	  H1	26.380	33.217	38.218	 H	1	SAM1	0.000	
37	  H2	27.368	33.820	37.043	 H	1	SAM1	0.000	
38	  H2	23.528	28.864	28.492	 H	1	SAM1	0.000	
39	  H3	26.023	32.961	36.628	 H	1	SAM1	0.000	
40	  H8	19.116	29.022	33.278	 H	1	SAM1	0.000	
41	 H1'	21.374	31.521	31.439	 H	1	SAM1	0.000	
42	 H2'	18.830	31.473	33.025	 H	1	SAM1	0.000	
43	 H2'	18.465	33.179	31.774	 H	1	SAM1	0.000	
44	 H3'	19.490	33.267	34.288	 H	1	SAM1	0.000	
45	 H3'	20.169	34.534	32.573	 H	1	SAM1	0.000	
46	 H4'	22.350	32.693	34.392	 H	1	SAM1	0.000	
47	 H61	20.278	25.143	30.577	 H	1	SAM1	0.000	
48	 H62	21.405	24.820	29.279	 H	1	SAM1	0.000	
49	H5'1	20.107	31.965	36.054	 H	1	SAM1	0.000	
50	H5'2	21.709	31.209	36.222	 H	1	SAM1	0.000	
@<TRIPOS>BOND
1 1 2 1
2 1 36 1
3 1 37 1
4 1 39 1
5 2 3 1
6 2 5 1
7 2 28 1
8 3 4 ar
9 3 17 ar
10 5 6 1
11 5 29 1
12 5 30 1
13 6 7 1
14 6 31 1
15 6 32 1
16 7 8 1
17 7 9 1
18 8 33 1
19 8 34 1
20 8 35 1
21 9 10 1
22 9 49 1
23 9 50 1
24 10 11 1
25 10 12 1
26 10 46 1
27 11 16 1
28 12 13 1
29 12 14 1
30 12 44 1
31 13 45 1
32 14 15 1
33 14 16 1
34 14 42 1
35 15 43 1
36 16 27 1
37 16 41 1
38 18 19 ar
39 18 23 ar
40 19 20 ar
41 19 38 1
42 20 21 ar
43 21 22 ar
44 21 27 ar
45 22 23 ar
46 22 25 ar
47 23 24 1
48 24 47 1
49 24 48 1
50 25 26 ar
51 26 27 ar
52 26 40 1
@<TRIPOS>SUBSTRUCTURE
1	SAM1	1	GROUP	1 A	SAM
