# created with PyMOL 2.5.0
@<TRIPOS>MOLECULE
5VSE
29 32 1                 
SMALL
USER_CHARGES
@<TRIPOS>ATOM
1	 CAB	8.279	11.009	29.108	C.3	1	9HG1506	0.000	
2	 CAC	2.958	12.622	29.331	C.3	1	9HG1506	0.000	
3	 CAD	1.323	21.446	25.926	C.3	1	9HG1506	0.000	
4	 CAE	7.592	13.611	28.362	C.2	1	9HG1506	0.000	
5	 CAF	4.928	14.410	28.386	C.2	1	9HG1506	0.000	
6	 CAJ	10.885	17.934	28.385	C.3	1	9HG1506	0.000	
7	 CAK	10.272	17.540	27.049	C.3	1	9HG1506	0.000	
8	 CAL	3.001	19.023	28.263	C.3	1	9HG1506	0.000	
9	 CAM	3.446	18.371	25.930	C.3	1	9HG1506	0.000	
10	 CAN	2.517	20.370	27.731	C.3	1	9HG1506	0.000	
11	 CAO	2.954	19.741	25.469	C.3	1	9HG1506	0.000	
12	 CAW	6.590	12.700	28.704	C.2	1	9HG1506	0.000	
13	 CAX	5.263	13.101	28.725	C.2	1	9HG1506	0.000	
14	 NAR	8.900	18.007	27.023	N.pl3	1	9HG1506	0.000	
15	 NAS	4.328	17.088	27.689	N.pl3	1	9HG1506	0.000	
16	 OAT	6.899	11.406	29.035	O.3	1	9HG1506	0.000	
17	 OAU	4.293	12.184	29.068	O.3	1	9HG1506	0.000	
18	 CBB	4.063	18.473	27.317	C.3	1	9HG1506	0.000	
19	 NBC	1.912	20.184	26.402	N.3	1	9HG1506	0.000	
20	  C1	8.575	19.381	26.661	C.3	1	9HG1506	0.000	
21	  N1	6.601	17.508	27.367	N.2	1	9HG1506	0.000	
22	  C2	7.888	17.098	27.362	C.2	1	9HG1506	0.000	
23	  C3	12.496	18.242	26.577	C.3	1	9HG1506	0.000	
24	  N3	8.219	15.820	27.683	N.2	1	9HG1506	0.000	
25	  C4	7.259	14.925	28.025	C.2	1	9HG1506	0.000	
26	  C5	5.925	15.326	28.036	C.2	1	9HG1506	0.000	
27	  C6	5.612	16.648	27.699	C.2	1	9HG1506	0.000	
28	  C7	12.371	18.123	28.093	C.3	1	9HG1506	0.000	
29	  C8	11.074	18.345	26.044	C.3	1	9HG1506	0.000	
@<TRIPOS>BOND
1 1 16 1
2 2 17 1
3 3 19 1
4 4 12 ar
5 4 25 ar
6 5 13 ar
7 5 26 ar
8 6 7 1
9 6 28 1
10 7 14 1
11 7 29 1
12 8 10 1
13 8 18 1
14 9 11 1
15 9 18 1
16 10 19 1
17 11 19 1
18 12 13 ar
19 12 16 1
20 13 17 1
21 14 20 1
22 14 22 1
23 15 18 1
24 15 27 1
25 21 22 ar
26 21 27 ar
27 22 24 ar
28 23 28 1
29 23 29 1
30 24 25 ar
31 25 26 ar
32 26 27 ar
@<TRIPOS>SUBSTRUCTURE
1	9HG1506	1	GROUP	1 A	9HG
