@<TRIPOS>MOLECULE
5VSE.A
64 67 1 0 0 
SMALL
USER_CHARGES


@<TRIPOS>ATOM
  1 CAB      8.2790    11.0090    29.1080 C.3   1 Q9HG   0.0400 
  2 HAB1     8.3400     9.9557    29.3817 H     1 Q9HG   0.0800 
  3 HAB2     8.7907    11.6100    29.8597 H     1 Q9HG   0.0800 
  4 HAB3     8.7524    11.1604    28.1379 H     1 Q9HG   0.0800 
  5 CAC      2.9580    12.6220    29.3310 C.3   1 Q9HG   0.0400 
  6 HAC1     2.3369    11.7627    29.5841 H     1 Q9HG   0.0800 
  7 HAC2     2.5555    13.1129    28.4450 H     1 Q9HG   0.0800 
  8 HAC3     2.9636    13.3244    30.1645 H     1 Q9HG   0.0800 
  9 CAD      1.3230    21.4460    25.9260 C.3   1 Q9HG   0.2630 
 10 HAD1     0.5497    21.7713    26.6219 H     1 Q9HG   0.0800 
 11 HAD2     0.8837    21.2929    24.9403 H     1 Q9HG   0.0800 
 12 HAD3     2.0994    22.2085    25.8633 H     1 Q9HG   0.0800 
 13 CAE      7.5920    13.6110    28.3620 C.ar  1 Q9HG  -0.1500 
 14 HAE      8.6259    13.2989    28.3581 H     1 Q9HG   0.1500 
 15 CAF      4.9280    14.4100    28.3860 C.ar  1 Q9HG  -0.1500 
 16 HAF      3.8932    14.7189    28.3935 H     1 Q9HG   0.1500 
 17 CAJ     10.8850    17.9340    28.3850 C.3   1 Q9HG  -0.1600 
 18 HAJ1    10.7361    17.1457    29.1229 H     1 Q9HG   0.0800 
 19 HAJ2    10.4447    18.8617    28.7506 H     1 Q9HG   0.0800 
 20 CAK     10.2720    17.5400    27.0490 C.3   1 Q9HG   0.2891 
 21 HAK     10.2865    16.4669    26.8584 H     1 Q9HG   0.0800 
 22 CAL      3.0010    19.0230    28.2630 C.3   1 Q9HG  -0.1600 
 23 HAL1     2.1631    18.3280    28.3167 H     1 Q9HG   0.0800 
 24 HAL2     3.4285    19.1541    29.2570 H     1 Q9HG   0.0800 
 25 CAM      3.4460    18.3710    25.9300 C.3   1 Q9HG  -0.1600 
 26 HAM1     4.1951    18.0030    25.2290 H     1 Q9HG   0.0800 
 27 HAM2     2.6052    17.6780    25.9602 H     1 Q9HG   0.0800 
 28 CAN      2.5170    20.3700    27.7310 C.3   1 Q9HG   0.3430 
 29 HAN1     3.3616    21.0546    27.6531 H     1 Q9HG   0.0800 
 30 HAN2     1.7749    20.7847    28.4132 H     1 Q9HG   0.0800 
 31 CAO      2.9540    19.7410    25.4690 C.3   1 Q9HG   0.3430 
 32 HAO1     2.5426    19.6672    24.4623 H     1 Q9HG   0.0800 
 33 HAO2     3.7805    20.4516    25.4724 H     1 Q9HG   0.0800 
 34 CAW      6.5900    12.7000    28.7040 C.ar  1 Q9HG   0.0825 
 35 CAX      5.2630    13.1010    28.7250 C.ar  1 Q9HG   0.0825 
 36 NAR      8.9000    18.0070    27.0230 N.pl3 1 Q9HG  -0.8382 
 37 NAS      4.3280    17.0880    27.6890 N.pl3 1 Q9HG  -0.8691 
 38 HAS      3.5699    16.4675    27.9347 H     1 Q9HG   0.4000 
 39 OAT      6.8990    11.4060    29.0350 O.3   1 Q9HG  -0.3625 
 40 OAU      4.2930    12.1840    29.0680 O.3   1 Q9HG  -0.3625 
 41 CBB      4.0630    18.4730    27.3170 C.3   1 Q9HG   0.2891 
 42 HBB      4.9501    19.1054    27.3519 H     1 Q9HG   0.0800 
 43 NBC      1.9120    20.1840    26.4020 N.4   1 Q9HG  -0.9590 
 44 HBC      1.1794    19.4911    26.4594 H     1 Q9HG   0.4500 
 45 C1       8.5750    19.3810    26.6610 C.3   1 Q9HG   0.1291 
 46 H11      9.4926    19.9235    26.4333 H     1 Q9HG   0.0800 
 47 H12      8.0639    19.8649    27.4933 H     1 Q9HG   0.0800 
 48 H13      7.9254    19.3822    25.7857 H     1 Q9HG   0.0800 
 49 N1       6.6010    17.5080    27.3670 N.ar  1 Q9HG  -0.6200 
 50 C2       7.8880    17.0980    27.3620 C.ar  1 Q9HG   0.7710 
 51 C3      12.4960    18.2420    26.5770 C.3   1 Q9HG  -0.1600 
 52 H31     12.9907    17.3612    26.1677 H     1 Q9HG   0.0800 
 53 H32     13.0647    19.1336    26.3130 H     1 Q9HG   0.0800 
 54 N3       8.2190    15.8200    27.6830 N.ar  1 Q9HG  -0.1790 
 55 H3       9.1876    15.5342    27.6668 H     1 Q9HG   0.4570 
 56 C4       7.2590    14.9250    28.0250 C.ar  1 Q9HG   0.3610 
 57 C5       5.9250    15.3260    28.0360 C.ar  1 Q9HG   0.0000 
 58 C6       5.6120    16.6480    27.6990 C.ar  1 Q9HG   0.4100 
 59 C7      12.3710    18.1230    28.0930 C.3   1 Q9HG  -0.1600 
 60 H71     12.9387    17.2648    28.4526 H     1 Q9HG   0.0800 
 61 H72     12.7383    19.0292    28.5746 H     1 Q9HG   0.0800 
 62 C8      11.0740    18.3450    26.0440 C.3   1 Q9HG  -0.1600 
 63 H81     10.7401    19.3822    26.0174 H     1 Q9HG   0.0800 
 64 H82     10.9977    17.9130    25.0462 H     1 Q9HG   0.0800 
@<TRIPOS>BOND
  1   1   2  1   
  2   1   3  1   
  3   1   4  1   
  4   1  39  1   
  5   5   6  1   
  6   5   7  1   
  7   5   8  1   
  8   5  40  1   
  9   9  10  1   
 10   9  11  1   
 11   9  12  1   
 12   9  43  1   
 13  13  14  1   
 14  13  34  ar  
 15  13  56  ar  
 16  15  16  1   
 17  15  35  ar  
 18  15  57  ar  
 19  17  18  1   
 20  17  19  1   
 21  17  20  1   
 22  17  59  1   
 23  20  21  1   
 24  20  36  1   
 25  20  62  1   
 26  22  23  1   
 27  22  24  1   
 28  22  28  1   
 29  22  41  1   
 30  25  26  1   
 31  25  27  1   
 32  25  31  1   
 33  25  41  1   
 34  28  29  1   
 35  28  30  1   
 36  28  43  1   
 37  31  32  1   
 38  31  33  1   
 39  31  43  1   
 40  34  35  ar  
 41  34  39  1   
 42  35  40  1   
 43  36  45  1   
 44  36  50  1   
 45  37  38  1   
 46  37  41  1   
 47  37  58  1   
 48  41  42  1   
 49  43  44  1   
 50  45  46  1   
 51  45  47  1   
 52  45  48  1   
 53  49  50  ar  
 54  49  58  ar  
 55  50  54  ar  
 56  51  52  1   
 57  51  53  1   
 58  51  59  1   
 59  51  62  1   
 60  54  55  1   
 61  54  56  ar  
 62  56  57  ar  
 63  57  58  ar  
 64  59  60  1   
 65  59  61  1   
 66  62  63  1   
 67  62  64  1   
@<TRIPOS>SUBSTRUCTURE
  1 Q9HG  58 GROUP 4 A **** 0

# MOE 2022.02 (io_trps.svl 2020.11)
