# created with PyMOL 2.4.0
@<TRIPOS>MOLECULE
temp
50 52 1                 
SMALL
USER_CHARGES
@<TRIPOS>ATOM
1	   N	-1.219	0.903	25.387	N.4	1	SAM1	0.000	
2	  CA	-0.778	1.875	24.354	C.3	1	SAM1	0.000	
3	   C	-1.609	1.656	23.115	C.2	1	SAM1	0.000	
4	   O	-2.605	0.889	23.181	O.co2	1	SAM1	0.000	
5	  CB	0.725	1.714	24.061	C.3	1	SAM1	0.000	
6	  CG	1.560	2.482	25.089	C.3	1	SAM1	0.000	
7	  SD	1.543	4.152	24.893	S.3	1	SAM1	0.000	
8	  CE	3.131	4.605	24.661	C.3	1	SAM1	0.000	
9	 C5'	1.109	4.887	26.331	C.3	1	SAM1	0.000	
10	 C4'	-0.371	4.772	26.750	C.3	1	SAM1	0.000	
11	 O4'	-0.716	3.430	27.125	O.3	1	SAM1	0.000	
12	 C3'	-0.690	5.560	28.009	C.3	1	SAM1	0.000	
13	 O3'	-0.938	6.952	27.775	O.3	1	SAM1	0.000	
14	 C2'	-1.922	4.844	28.534	C.3	1	SAM1	0.000	
15	 O2'	-3.055	5.154	27.708	O.3	1	SAM1	0.000	
16	 C1'	-1.565	3.397	28.285	C.3	1	SAM1	0.000	
17	 OXT	-1.291	2.267	22.067	O.co2	1	SAM1	0.000	
18	  N1	-1.559	1.864	33.213	N.2	1	SAM1	0.000	
19	  C2	-2.568	2.354	32.483	C.2	1	SAM1	0.000	
20	  N3	-2.413	2.712	31.205	N.2	1	SAM1	0.000	
21	  C4	-1.189	2.564	30.628	C.2	1	SAM1	0.000	
22	  C5	-0.126	2.053	31.351	C.2	1	SAM1	0.000	
23	  C6	-0.323	1.700	32.674	C.2	1	SAM1	0.000	
24	  N6	0.681	1.195	33.424	N.pl3	1	SAM1	0.000	
25	  N7	0.970	2.022	30.523	N.2	1	SAM1	0.000	
26	  C8	0.551	2.510	29.335	C.2	1	SAM1	0.000	
27	  N9	-0.756	2.835	29.398	N.2	1	SAM1	0.000	
28	  HA	-0.923	2.895	24.711	 H	1	SAM1	0.000	
29	 HB1	0.939	2.101	23.065	 H	1	SAM1	0.000	
30	 HB2	0.987	0.657	24.104	 H	1	SAM1	0.000	
31	 HG1	2.592	2.141	25.013	 H	1	SAM1	0.000	
32	 HG2	1.174	2.252	26.082	 H	1	SAM1	0.000	
33	 HE1	3.502	4.166	23.735	 H	1	SAM1	0.000	
34	 HE2	3.735	4.253	25.497	 H	1	SAM1	0.000	
35	 HE3	3.194	5.691	24.599	 H	1	SAM1	0.000	
36	  H1	-1.081	-0.037	25.045	 H	1	SAM1	0.000	
37	  H2	-2.198	1.047	25.589	 H	1	SAM1	0.000	
38	  H2	-3.539	2.464	32.942	 H	1	SAM1	0.000	
39	  H3	-0.678	1.038	26.229	 H	1	SAM1	0.000	
40	  H8	1.174	2.624	28.460	 H	1	SAM1	0.000	
41	 H1'	-2.466	2.793	28.178	 H	1	SAM1	0.000	
42	 H2'	-2.167	5.101	29.565	 H	1	SAM1	0.000	
43	 H2'	-3.229	6.094	27.795	 H	1	SAM1	0.000	
44	 H3'	0.147	5.580	28.707	 H	1	SAM1	0.000	
45	 H3'	-1.154	7.354	28.619	 H	1	SAM1	0.000	
46	 H4'	-0.914	5.136	25.878	 H	1	SAM1	0.000	
47	 H61	1.598	1.068	33.021	 H	1	SAM1	0.000	
48	 H62	0.514	0.944	34.388	 H	1	SAM1	0.000	
49	H5'1	1.346	5.947	26.244	 H	1	SAM1	0.000	
50	H5'2	1.712	4.444	27.124	 H	1	SAM1	0.000	
@<TRIPOS>BOND
1 1 2 1
2 1 36 1
3 1 37 1
4 1 39 1
5 2 3 1
6 2 5 1
7 2 28 1
8 3 4 ar
9 3 17 ar
10 5 6 1
11 5 29 1
12 5 30 1
13 6 7 1
14 6 31 1
15 6 32 1
16 7 8 1
17 7 9 1
18 8 33 1
19 8 34 1
20 8 35 1
21 9 10 1
22 9 49 1
23 9 50 1
24 10 11 1
25 10 12 1
26 10 46 1
27 11 16 1
28 12 13 1
29 12 14 1
30 12 44 1
31 13 45 1
32 14 15 1
33 14 16 1
34 14 42 1
35 15 43 1
36 16 27 1
37 16 41 1
38 18 19 ar
39 18 23 ar
40 19 20 ar
41 19 38 1
42 20 21 ar
43 21 22 ar
44 21 27 ar
45 22 23 ar
46 22 25 ar
47 23 24 1
48 24 47 1
49 24 48 1
50 25 26 ar
51 26 27 ar
52 26 40 1
@<TRIPOS>SUBSTRUCTURE
1	SAM1	1	GROUP	1 A	SAM
