@<TRIPOS>MOLECULE
5VSE.A
51 53 1 0 0 
SMALL
USER_CHARGES


@<TRIPOS>ATOM
  1 N       -1.2190     0.9030    25.3870 N.4   1 SAM  -0.8530 
  2 H1      -1.0805    -0.0373    25.0454 H     1 SAM   0.4500 
  3 H2      -2.1981     1.0471    25.5887 H     1 SAM   0.4500 
  4 H3      -0.6783     1.0383    26.2293 H     1 SAM   0.4500 
  5 CA      -0.7780     1.8750    24.3540 C.3   1 SAM   0.3170 
  6 HA      -0.9225     2.8947    24.7110 H     1 SAM   0.0800 
  7 C       -1.6090     1.6560    23.1150 C.2   1 SAM   0.9060 
  8 O       -2.6050     0.8890    23.1810 O.co2 1 SAM  -0.9000 
  9 CB       0.7250     1.7140    24.0610 C.3   1 SAM  -0.1600 
 10 HB1      0.9391     2.1008    23.0647 H     1 SAM   0.0800 
 11 HB2      0.9871     0.6569    24.1044 H     1 SAM   0.0800 
 12 CG       1.5600     2.4820    25.0890 C.3   1 SAM  -0.1525 
 13 HG1      2.5924     2.1407    25.0126 H     1 SAM   0.0800 
 14 HG2      1.1737     2.2517    26.0819 H     1 SAM   0.0800 
 15 SD       1.5430     4.1520    24.8930 S.3   1 SAM   0.9775 
 16 CE       3.1310     4.6050    24.6610 C.3   1 SAM  -0.2325 
 17 HE1      3.5024     4.1662    23.7349 H     1 SAM   0.0800 
 18 HE2      3.7350     4.2534    25.4974 H     1 SAM   0.0800 
 19 HE3      3.1936     5.6914    24.5990 H     1 SAM   0.0800 
 20 C5'      1.1090     4.8870    26.3310 C.3   1 SAM  -0.1525 
 21 H5'1     1.3461     5.9474    26.2444 H     1 SAM   0.0800 
 22 H5'2     1.7118     4.4435    27.1235 H     1 SAM   0.0800 
 23 C4'     -0.3710     4.7720    26.7500 C.3   1 SAM   0.2000 
 24 H4'     -0.9138     5.1361    25.8777 H     1 SAM   0.0800 
 25 O4'     -0.7160     3.4300    27.1250 O.3   1 SAM  -0.5600 
 26 C3'     -0.6900     5.5600    28.0090 C.3   1 SAM   0.2000 
 27 H3'      0.1467     5.5804    28.7073 H     1 SAM   0.0800 
 28 O3'     -0.9380     6.9520    27.7750 O.3   1 SAM  -0.6800 
 29 H3'     -1.1540     7.3543    28.6194 H     1 SAM   0.4000 
 30 C2'     -1.9220     4.8440    28.5340 C.3   1 SAM   0.2000 
 31 H2'     -2.1674     5.1005    29.5646 H     1 SAM   0.0800 
 32 O2'     -3.0550     5.1540    27.7080 O.3   1 SAM  -0.6800 
 33 H2'     -3.2291     6.0941    27.7949 H     1 SAM   0.4000 
 34 C1'     -1.5650     3.3970    28.2850 C.3   1 SAM   0.5691 
 35 H1'     -2.4659     2.7929    28.1778 H     1 SAM   0.0800 
 36 OXT     -1.2910     2.2670    22.0670 O.co2 1 SAM  -0.9000 
 37 N1      -1.5590     1.8640    33.2130 N.2   1 SAM  -0.6610 
 38 C2      -2.5680     2.3540    32.4830 C.2   1 SAM   0.6010 
 39 H2      -3.5395     2.4637    32.9419 H     1 SAM   0.0600 
 40 N3      -2.4130     2.7120    31.2050 N.2   1 SAM  -0.6610 
 41 C4      -1.1890     2.5640    30.6280 C.2   1 SAM   0.5000 
 42 C5      -0.1260     2.0530    31.3510 C.2   1 SAM   0.4500 
 43 C6      -0.3230     1.7000    32.6740 C.2   1 SAM   0.6110 
 44 N6       0.6810     1.1950    33.4240 N.2   1 SAM  -0.2000 
 45 H62      0.5143     0.9441    34.3880 H     1 SAM   0.4000 
 46 H61      1.5982     1.0684    33.0206 H     1 SAM   0.4000 
 47 N7       0.9700     2.0220    30.5230 N.2   1 SAM  -0.6960 
 48 C8       0.5510     2.5100    29.3350 C.3   1 SAM   0.4551 
 49 H81      0.6968     1.7536    28.5638 H     1 SAM   0.0800 
 50 H82      1.1311     3.3987    29.0865 H     1 SAM   0.0800 
 51 N9      -0.7560     2.8350    29.3980 N.pl3 1 SAM  -0.7882 
@<TRIPOS>BOND
  1   1   2  1   
  2   1   3  1   
  3   1   4  1   
  4   1   5  1   
  5   5   6  1   
  6   5   7  1   
  7   5   9  1   
  8   7   8  ar  
  9   7  36  ar  
 10   9  10  1   
 11   9  11  1   
 12   9  12  1   
 13  12  13  1   
 14  12  14  1   
 15  12  15  1   
 16  15  16  1   
 17  15  20  1   
 18  16  17  1   
 19  16  18  1   
 20  16  19  1   
 21  20  21  1   
 22  20  22  1   
 23  20  23  1   
 24  23  24  1   
 25  23  25  1   
 26  23  26  1   
 27  25  34  1   
 28  26  27  1   
 29  26  28  1   
 30  26  30  1   
 31  28  29  1   
 32  30  31  1   
 33  30  32  1   
 34  30  34  1   
 35  32  33  1   
 36  34  35  1   
 37  34  51  1   
 38  37  38  2   
 39  37  43  1   
 40  38  39  1   
 41  38  40  1   
 42  40  41  2   
 43  41  42  1   
 44  41  51  1   
 45  42  43  1   
 46  42  47  2   
 47  43  44  2   
 48  44  45  1   
 49  44  46  1   
 50  47  48  1   
 51  48  49  1   
 52  48  50  1   
 53  48  51  1   
@<TRIPOS>SUBSTRUCTURE
  1 SAM  25 GROUP 4 A **** 0

# MOE 2022.02 (io_trps.svl 2020.11)
