# created with PyMOL 2.5.0
@<TRIPOS>MOLECULE
5VSE
27 29 1                 
SMALL
USER_CHARGES
@<TRIPOS>ATOM
1	   N	-1.219	0.903	25.387	N.3	1	SAM1505	0.000	
2	  CA	-0.778	1.875	24.354	C.3	1	SAM1505	0.000	
3	   C	-1.609	1.656	23.115	C.2	1	SAM1505	0.000	
4	   O	-2.605	0.889	23.181	O.co2	1	SAM1505	0.000	
5	  CB	0.725	1.714	24.061	C.3	1	SAM1505	0.000	
6	  CG	1.560	2.482	25.089	C.3	1	SAM1505	0.000	
7	  SD	1.543	4.152	24.893	S.3	1	SAM1505	0.000	
8	  CE	3.131	4.605	24.661	C.3	1	SAM1505	0.000	
9	 C5'	1.109	4.887	26.331	C.3	1	SAM1505	0.000	
10	 C4'	-0.371	4.772	26.750	C.3	1	SAM1505	0.000	
11	 O4'	-0.716	3.430	27.125	O.3	1	SAM1505	0.000	
12	 C3'	-0.690	5.560	28.009	C.3	1	SAM1505	0.000	
13	 O3'	-0.938	6.952	27.775	O.3	1	SAM1505	0.000	
14	 C2'	-1.922	4.844	28.534	C.3	1	SAM1505	0.000	
15	 O2'	-3.055	5.154	27.708	O.3	1	SAM1505	0.000	
16	 C1'	-1.565	3.397	28.285	C.3	1	SAM1505	0.000	
17	 OXT	-1.291	2.267	22.067	O.co2	1	SAM1505	0.000	
18	  N1	-1.559	1.864	33.213	N.2	1	SAM1505	0.000	
19	  C2	-2.568	2.354	32.483	C.2	1	SAM1505	0.000	
20	  N3	-2.413	2.712	31.205	N.2	1	SAM1505	0.000	
21	  C4	-1.189	2.564	30.628	C.2	1	SAM1505	0.000	
22	  C5	-0.126	2.053	31.351	C.2	1	SAM1505	0.000	
23	  C6	-0.323	1.700	32.674	C.2	1	SAM1505	0.000	
24	  N6	0.681	1.195	33.424	N.pl3	1	SAM1505	0.000	
25	  N7	0.970	2.022	30.523	N.2	1	SAM1505	0.000	
26	  C8	0.551	2.510	29.335	C.2	1	SAM1505	0.000	
27	  N9	-0.756	2.835	29.398	N.2	1	SAM1505	0.000	
@<TRIPOS>BOND
1 1 2 1
2 2 3 1
3 2 5 1
4 3 4 ar
5 3 17 ar
6 5 6 1
7 6 7 1
8 7 8 1
9 7 9 1
10 9 10 1
11 10 11 1
12 10 12 1
13 11 16 1
14 12 13 1
15 12 14 1
16 14 15 1
17 14 16 1
18 16 27 1
19 18 19 ar
20 18 23 ar
21 19 20 ar
22 20 21 ar
23 21 22 ar
24 21 27 ar
25 22 23 ar
26 22 25 ar
27 23 24 1
28 25 26 ar
29 26 27 ar
@<TRIPOS>SUBSTRUCTURE
1	SAM1505	1	GROUP	1 A	SAM
