@<TRIPOS>MOLECULE
5VSF.A
64 67 1 0 0 
SMALL
USER_CHARGES


@<TRIPOS>ATOM
  1 CAB     18.6160   -17.7400    -1.0250 C.3   1 Q9HG   0.0400 
  2 HAB1    17.9908   -18.3746    -0.3969 H     1 Q9HG   0.0800 
  3 HAB2    19.5910   -18.2087    -1.1586 H     1 Q9HG   0.0800 
  4 HAB3    18.1399   -17.6085    -1.9967 H     1 Q9HG   0.0800 
  5 CAC     19.5640   -12.9970     1.6410 C.3   1 Q9HG   0.0400 
  6 HAC1    18.9841   -12.9919     2.5639 H     1 Q9HG   0.0800 
  7 HAC2    19.4201   -12.0525     1.1162 H     1 Q9HG   0.0800 
  8 HAC3    20.6206   -13.1245     1.8765 H     1 Q9HG   0.0800 
  9 CAD     23.9790    -6.2380    -3.7240 C.3   1 Q9HG   0.2630 
 10 HAD1    24.5774    -5.7424    -2.9595 H     1 Q9HG   0.0800 
 11 HAD2    23.1871    -5.5672    -4.0571 H     1 Q9HG   0.0800 
 12 HAD3    24.6144    -6.4986    -4.5705 H     1 Q9HG   0.0800 
 13 CAE     20.1310   -15.7540    -2.2660 C.ar  1 Q9HG  -0.1500 
 14 HAE     20.0049   -16.7099    -2.7526 H     1 Q9HG   0.1500 
 15 CAF     20.4690   -13.2700    -1.0100 C.ar  1 Q9HG  -0.1500 
 16 HAF     20.5883   -12.3140    -0.5219 H     1 Q9HG   0.1500 
 17 CAJ     23.7400   -16.4930    -5.9540 C.3   1 Q9HG  -0.1600 
 18 HAJ1    23.3886   -17.1451    -5.1544 H     1 Q9HG   0.0800 
 19 HAJ2    24.5514   -15.8672    -5.5823 H     1 Q9HG   0.0800 
 20 CAK     22.5950   -15.6220    -6.4640 C.3   1 Q9HG   0.2891 
 21 HAK     21.6094   -16.0038    -6.1977 H     1 Q9HG   0.0800 
 22 CAL     23.7860    -9.6190    -2.0990 C.3   1 Q9HG  -0.1600 
 23 HAL1    23.1998    -9.3097    -1.2336 H     1 Q9HG   0.0800 
 24 HAL2    24.5675   -10.3089    -1.7807 H     1 Q9HG   0.0800 
 25 CAM     21.8630    -9.3130    -3.6040 C.3   1 Q9HG  -0.1600 
 26 HAM1    21.2365    -9.7784    -4.3649 H     1 Q9HG   0.0800 
 27 HAM2    21.2396    -8.9787    -2.7747 H     1 Q9HG   0.0800 
 28 CAN     24.4340    -8.3860    -2.7310 C.3   1 Q9HG   0.3430 
 29 HAN1    25.0313    -8.6881    -3.5913 H     1 Q9HG   0.0800 
 30 HAN2    25.0744    -7.8945    -1.9986 H     1 Q9HG   0.0800 
 31 CAO     22.5820    -8.1110    -4.2100 C.3   1 Q9HG   0.3430 
 32 HAO1    21.8494    -7.4057    -4.6023 H     1 Q9HG   0.0800 
 33 HAO2    23.2347    -8.4435    -5.0172 H     1 Q9HG   0.0800 
 34 CAW     19.5410   -15.5090    -1.0290 C.ar  1 Q9HG   0.0825 
 35 CAX     19.7160   -14.2800    -0.4080 C.ar  1 Q9HG   0.0825 
 36 NAR     22.7890   -14.2890    -5.9020 N.pl3 1 Q9HG  -0.8382 
 37 NAS     22.0540   -11.3030    -2.3610 N.pl3 1 Q9HG  -0.8691 
 38 HAS     21.6580   -11.0615    -1.4638 H     1 Q9HG   0.4000 
 39 OAT     18.7820   -16.4630    -0.3980 O.3   1 Q9HG  -0.3625 
 40 OAU     19.1260   -14.0790     0.8070 O.3   1 Q9HG  -0.3625 
 41 CBB     22.8700   -10.3270    -3.0960 C.3   1 Q9HG   0.2891 
 42 HBB     23.4691   -10.7790    -3.8865 H     1 Q9HG   0.0800 
 43 NBC     23.3830    -7.4600    -3.1640 N.4   1 Q9HG  -0.9590 
 44 HBC     22.8081    -7.2174    -2.3698 H     1 Q9HG   0.4500 
 45 C1      23.5710   -13.2750    -6.5980 C.3   1 Q9HG   0.1291 
 46 H11     23.9399   -13.6832    -7.5390 H     1 Q9HG   0.0800 
 47 H12     24.4147   -12.9764    -5.9758 H     1 Q9HG   0.0800 
 48 H13     22.9432   -12.4071    -6.7997 H     1 Q9HG   0.0800 
 49 N1      22.3920   -12.8120    -4.0900 N.ar  1 Q9HG  -0.6200 
 50 C2      22.2060   -14.0130    -4.6700 C.ar  1 Q9HG   0.7710 
 51 C3      23.3940   -16.8920    -8.3470 C.3   1 Q9HG  -0.1600 
 52 H31     22.6106   -17.6212    -8.5535 H     1 Q9HG   0.0800 
 53 H32     24.0318   -16.7857    -9.2245 H     1 Q9HG   0.0800 
 54 N3      21.4570   -14.9690    -4.0760 N.ar  1 Q9HG  -0.1790 
 55 H3      21.3208   -15.8571    -4.5372 H     1 Q9HG   0.4570 
 56 C4      20.8890   -14.7460    -2.8700 C.ar  1 Q9HG   0.3610 
 57 C5      21.0650   -13.5080    -2.2470 C.ar  1 Q9HG   0.0000 
 58 C6      21.8360   -12.5300    -2.8950 C.ar  1 Q9HG   0.4100 
 59 C7      24.2190   -17.3260    -7.1400 C.3   1 Q9HG  -0.1600 
 60 H71     24.0631   -18.3863    -6.9409 H     1 Q9HG   0.0800 
 61 H72     25.2776   -17.1427    -7.3238 H     1 Q9HG   0.0800 
 62 C8      22.7830   -15.5500    -7.9700 C.3   1 Q9HG  -0.1600 
 63 H81     23.4548   -14.7336    -8.2350 H     1 Q9HG   0.0800 
 64 H82     21.8251   -15.4094    -8.4708 H     1 Q9HG   0.0800 
@<TRIPOS>BOND
  1   1   2  1   
  2   1   3  1   
  3   1   4  1   
  4   1  39  1   
  5   5   6  1   
  6   5   7  1   
  7   5   8  1   
  8   5  40  1   
  9   9  10  1   
 10   9  11  1   
 11   9  12  1   
 12   9  43  1   
 13  13  14  1   
 14  13  34  ar  
 15  13  56  ar  
 16  15  16  1   
 17  15  35  ar  
 18  15  57  ar  
 19  17  18  1   
 20  17  19  1   
 21  17  20  1   
 22  17  59  1   
 23  20  21  1   
 24  20  36  1   
 25  20  62  1   
 26  22  23  1   
 27  22  24  1   
 28  22  28  1   
 29  22  41  1   
 30  25  26  1   
 31  25  27  1   
 32  25  31  1   
 33  25  41  1   
 34  28  29  1   
 35  28  30  1   
 36  28  43  1   
 37  31  32  1   
 38  31  33  1   
 39  31  43  1   
 40  34  35  ar  
 41  34  39  1   
 42  35  40  1   
 43  36  45  1   
 44  36  50  1   
 45  37  38  1   
 46  37  41  1   
 47  37  58  1   
 48  41  42  1   
 49  43  44  1   
 50  45  46  1   
 51  45  47  1   
 52  45  48  1   
 53  49  50  ar  
 54  49  58  ar  
 55  50  54  ar  
 56  51  52  1   
 57  51  53  1   
 58  51  59  1   
 59  51  62  1   
 60  54  55  1   
 61  54  56  ar  
 62  56  57  ar  
 63  57  58  ar  
 64  59  60  1   
 65  59  61  1   
 66  62  63  1   
 67  62  64  1   
@<TRIPOS>SUBSTRUCTURE
  1 Q9HG  58 GROUP 4 A **** 0

# MOE 2022.02 (io_trps.svl 2020.11)
