@<TRIPOS>MOLECULE
5VSF.B
64 67 1 0 0 
SMALL
USER_CHARGES


@<TRIPOS>ATOM
  1 CAB     -4.2980   -19.3050   -45.2840 C.3   1 Q9HG   0.0400 
  2 HAB1    -5.3386   -19.4584   -44.9982 H     1 Q9HG   0.0800 
  3 HAB2    -4.1852   -18.3161   -45.7284 H     1 Q9HG   0.0800 
  4 HAB3    -3.6637   -19.3810   -44.4009 H     1 Q9HG   0.0800 
  5 CAC     -2.9270   -23.0390   -49.1630 C.3   1 Q9HG   0.0400 
  6 HAC1    -3.8066   -23.6538   -49.3539 H     1 Q9HG   0.0800 
  7 HAC2    -2.0994   -23.6758   -48.8507 H     1 Q9HG   0.0800 
  8 HAC3    -2.6518   -22.5059   -50.0730 H     1 Q9HG   0.0800 
  9 CAD      6.4390   -23.2700   -51.2220 C.3   1 Q9HG   0.2630 
 10 HAD1     6.3686   -23.6282   -52.2491 H     1 Q9HG   0.0800 
 11 HAD2     6.8431   -24.0597   -50.5886 H     1 Q9HG   0.0800 
 12 HAD3     7.0968   -22.4017   -51.1843 H     1 Q9HG   0.0800 
 13 CAE     -1.6950   -19.3670   -46.2690 C.ar  1 Q9HG  -0.1500 
 14 HAE     -1.9751   -18.6502   -45.5113 H     1 Q9HG   0.1500 
 15 CAF     -0.9730   -21.2270   -48.2200 C.ar  1 Q9HG  -0.1500 
 16 HAF     -0.6964   -21.9519   -48.9713 H     1 Q9HG   0.1500 
 17 CAJ      3.6100   -15.8830   -44.8960 C.3   1 Q9HG  -0.1600 
 18 HAJ1     4.4830   -16.4454   -45.2272 H     1 Q9HG   0.0800 
 19 HAJ2     3.6026   -15.8315   -43.8072 H     1 Q9HG   0.0800 
 20 CAK      2.3380   -16.5600   -45.3920 C.3   1 Q9HG   0.2891 
 21 HAK      1.7795   -16.9959   -44.5636 H     1 Q9HG   0.0800 
 22 CAL      3.1150   -21.5250   -51.1130 C.3   1 Q9HG  -0.1600 
 23 HAL1     2.5088   -22.4257   -51.2102 H     1 Q9HG   0.0800 
 24 HAL2     2.6958   -20.7358   -51.7372 H     1 Q9HG   0.0800 
 25 CAM      3.8160   -22.1110   -48.8100 C.3   1 Q9HG  -0.1600 
 26 HAM1     3.9061   -21.7390   -47.7894 H     1 Q9HG   0.0800 
 27 HAM2     3.2313   -23.0309   -48.8111 H     1 Q9HG   0.0800 
 28 CAN      4.5410   -21.8300   -51.5850 C.3   1 Q9HG   0.3430 
 29 HAN1     5.1546   -20.9331   -51.5001 H     1 Q9HG   0.0800 
 30 HAN2     4.5204   -22.1590   -52.6239 H     1 Q9HG   0.0800 
 31 CAO      5.2090   -22.4100   -49.3520 C.3   1 Q9HG   0.3430 
 32 HAO1     5.6819   -23.1754   -48.7366 H     1 Q9HG   0.0800 
 33 HAO2     5.8110   -21.5016   -49.3282 H     1 Q9HG   0.0800 
 34 CAW     -2.6260   -20.2900   -46.7310 C.ar  1 Q9HG   0.0825 
 35 CAX     -2.2710   -21.2080   -47.7070 C.ar  1 Q9HG   0.0825 
 36 NAR      2.7230   -17.5540   -46.3850 N.pl3 1 Q9HG  -0.8382 
 37 NAS      1.7090   -21.1490   -49.1960 N.pl3 1 Q9HG  -0.8691 
 38 HAS      1.0829   -21.8435   -49.5777 H     1 Q9HG   0.4000 
 39 OAT     -3.9120   -20.3040   -46.2370 O.3   1 Q9HG  -0.3625 
 40 OAU     -3.2200   -22.0960   -48.1280 O.3   1 Q9HG  -0.3625 
 41 CBB      3.0970   -21.0680   -49.6540 C.3   1 Q9HG   0.2891 
 42 HBB      3.5401   -20.0756   -49.5710 H     1 Q9HG   0.0800 
 43 NBC      5.1020   -22.8930   -50.7420 N.4   1 Q9HG  -0.9590 
 44 HBC      4.4940   -23.6984   -50.7839 H     1 Q9HG   0.4500 
 45 C1       4.0660   -17.6330   -46.9430 C.3   1 Q9HG   0.1291 
 46 H11      4.6881   -16.8528   -46.5044 H     1 Q9HG   0.0800 
 47 H12      4.0192   -17.4960   -48.0233 H     1 Q9HG   0.0800 
 48 H13      4.4957   -18.6093   -46.7188 H     1 Q9HG   0.0800 
 49 N1       2.1490   -19.3630   -47.7740 N.ar  1 Q9HG  -0.6200 
 50 C2       1.7790   -18.4760   -46.8270 C.ar  1 Q9HG   0.7710 
 51 C3       2.2400   -14.1670   -45.9670 C.3   1 Q9HG  -0.1600 
 52 H31      2.2782   -13.6232   -46.9109 H     1 Q9HG   0.0800 
 53 H32      1.7083   -13.5708   -45.2254 H     1 Q9HG   0.0800 
 54 N3       0.5180   -18.4760   -46.3270 N.ar  1 Q9HG  -0.1790 
 55 H3       0.2589   -17.8114   -45.6119 H     1 Q9HG   0.4570 
 56 C4      -0.3950   -19.3670   -46.7860 C.ar  1 Q9HG   0.3610 
 57 C5      -0.0320   -20.3010   -47.7550 C.ar  1 Q9HG   0.0000 
 58 C6       1.2760   -20.2760   -48.2500 C.ar  1 Q9HG   0.4100 
 59 C7       3.6460   -14.4760   -45.4820 C.3   1 Q9HG  -0.1600 
 60 H71      4.3480   -14.4341   -46.3148 H     1 Q9HG   0.0800 
 61 H72      3.9456   -13.7587   -44.7179 H     1 Q9HG   0.0800 
 62 C8       1.5460   -15.5070   -46.1600 C.3   1 Q9HG  -0.1600 
 63 H81      0.5277   -15.4555   -45.7747 H     1 Q9HG   0.0800 
 64 H82      1.5212   -15.7620   -47.2195 H     1 Q9HG   0.0800 
@<TRIPOS>BOND
  1   1   2  1   
  2   1   3  1   
  3   1   4  1   
  4   1  39  1   
  5   5   6  1   
  6   5   7  1   
  7   5   8  1   
  8   5  40  1   
  9   9  10  1   
 10   9  11  1   
 11   9  12  1   
 12   9  43  1   
 13  13  14  1   
 14  13  34  ar  
 15  13  56  ar  
 16  15  16  1   
 17  15  35  ar  
 18  15  57  ar  
 19  17  18  1   
 20  17  19  1   
 21  17  20  1   
 22  17  59  1   
 23  20  21  1   
 24  20  36  1   
 25  20  62  1   
 26  22  23  1   
 27  22  24  1   
 28  22  28  1   
 29  22  41  1   
 30  25  26  1   
 31  25  27  1   
 32  25  31  1   
 33  25  41  1   
 34  28  29  1   
 35  28  30  1   
 36  28  43  1   
 37  31  32  1   
 38  31  33  1   
 39  31  43  1   
 40  34  35  ar  
 41  34  39  1   
 42  35  40  1   
 43  36  45  1   
 44  36  50  1   
 45  37  38  1   
 46  37  41  1   
 47  37  58  1   
 48  41  42  1   
 49  43  44  1   
 50  45  46  1   
 51  45  47  1   
 52  45  48  1   
 53  49  50  ar  
 54  49  58  ar  
 55  50  54  ar  
 56  51  52  1   
 57  51  53  1   
 58  51  59  1   
 59  51  62  1   
 60  54  55  1   
 61  54  56  ar  
 62  56  57  ar  
 63  57  58  ar  
 64  59  60  1   
 65  59  61  1   
 66  62  63  1   
 67  62  64  1   
@<TRIPOS>SUBSTRUCTURE
  1 Q9HG  58 GROUP 4 B **** 0

# MOE 2022.02 (io_trps.svl 2020.11)
