# created with PyMOL 2.5.0
@<TRIPOS>MOLECULE
5VSF
29 32 1                 
SMALL
USER_CHARGES
@<TRIPOS>ATOM
1	 CAB	18.616	-17.740	-1.025	C.3	1	9HG3006	0.000	
2	 CAC	19.564	-12.997	1.641	C.3	1	9HG3006	0.000	
3	 CAD	23.979	-6.238	-3.724	C.3	1	9HG3006	0.000	
4	 CAE	20.131	-15.754	-2.266	C.2	1	9HG3006	0.000	
5	 CAF	20.469	-13.270	-1.010	C.2	1	9HG3006	0.000	
6	 CAJ	23.740	-16.493	-5.954	C.3	1	9HG3006	0.000	
7	 CAK	22.595	-15.622	-6.464	C.3	1	9HG3006	0.000	
8	 CAL	23.786	-9.619	-2.099	C.3	1	9HG3006	0.000	
9	 CAM	21.863	-9.313	-3.604	C.3	1	9HG3006	0.000	
10	 CAN	24.434	-8.386	-2.731	C.3	1	9HG3006	0.000	
11	 CAO	22.582	-8.111	-4.210	C.3	1	9HG3006	0.000	
12	 CAW	19.541	-15.509	-1.029	C.2	1	9HG3006	0.000	
13	 CAX	19.716	-14.280	-0.408	C.2	1	9HG3006	0.000	
14	 NAR	22.789	-14.289	-5.902	N.pl3	1	9HG3006	0.000	
15	 NAS	22.054	-11.303	-2.361	N.pl3	1	9HG3006	0.000	
16	 OAT	18.782	-16.463	-0.398	O.3	1	9HG3006	0.000	
17	 OAU	19.126	-14.079	0.807	O.3	1	9HG3006	0.000	
18	 CBB	22.870	-10.327	-3.096	C.3	1	9HG3006	0.000	
19	 NBC	23.383	-7.460	-3.164	N.3	1	9HG3006	0.000	
20	  C1	23.571	-13.275	-6.598	C.3	1	9HG3006	0.000	
21	  N1	22.392	-12.812	-4.090	N.2	1	9HG3006	0.000	
22	  C2	22.206	-14.013	-4.670	C.2	1	9HG3006	0.000	
23	  C3	23.394	-16.892	-8.347	C.3	1	9HG3006	0.000	
24	  N3	21.457	-14.969	-4.076	N.2	1	9HG3006	0.000	
25	  C4	20.889	-14.746	-2.870	C.2	1	9HG3006	0.000	
26	  C5	21.065	-13.508	-2.247	C.2	1	9HG3006	0.000	
27	  C6	21.836	-12.530	-2.895	C.2	1	9HG3006	0.000	
28	  C7	24.219	-17.326	-7.140	C.3	1	9HG3006	0.000	
29	  C8	22.783	-15.550	-7.970	C.3	1	9HG3006	0.000	
@<TRIPOS>BOND
1 1 16 1
2 2 17 1
3 3 19 1
4 4 12 ar
5 4 25 ar
6 5 13 ar
7 5 26 ar
8 6 7 1
9 6 28 1
10 7 14 1
11 7 29 1
12 8 10 1
13 8 18 1
14 9 11 1
15 9 18 1
16 10 19 1
17 11 19 1
18 12 13 ar
19 12 16 1
20 13 17 1
21 14 20 1
22 14 22 1
23 15 18 1
24 15 27 1
25 21 22 ar
26 21 27 ar
27 22 24 ar
28 23 28 1
29 23 29 1
30 24 25 ar
31 25 26 ar
32 26 27 ar
@<TRIPOS>SUBSTRUCTURE
1	9HG3006	1	GROUP	1 A	9HG
