# created with PyMOL 2.5.0
@<TRIPOS>MOLECULE
5VSF
29 32 1                 
SMALL
USER_CHARGES
@<TRIPOS>ATOM
1	 CAB	-4.298	-19.305	-45.284	C.3	1	9HG3006	0.000	
2	 CAC	-2.927	-23.039	-49.163	C.3	1	9HG3006	0.000	
3	 CAD	6.439	-23.270	-51.222	C.3	1	9HG3006	0.000	
4	 CAE	-1.695	-19.367	-46.269	C.2	1	9HG3006	0.000	
5	 CAF	-0.973	-21.227	-48.220	C.2	1	9HG3006	0.000	
6	 CAJ	3.610	-15.883	-44.896	C.3	1	9HG3006	0.000	
7	 CAK	2.338	-16.560	-45.392	C.3	1	9HG3006	0.000	
8	 CAL	3.115	-21.525	-51.113	C.3	1	9HG3006	0.000	
9	 CAM	3.816	-22.111	-48.810	C.3	1	9HG3006	0.000	
10	 CAN	4.541	-21.830	-51.585	C.3	1	9HG3006	0.000	
11	 CAO	5.209	-22.410	-49.352	C.3	1	9HG3006	0.000	
12	 CAW	-2.626	-20.290	-46.731	C.2	1	9HG3006	0.000	
13	 CAX	-2.271	-21.208	-47.707	C.2	1	9HG3006	0.000	
14	 NAR	2.723	-17.554	-46.385	N.pl3	1	9HG3006	0.000	
15	 NAS	1.709	-21.149	-49.196	N.pl3	1	9HG3006	0.000	
16	 OAT	-3.912	-20.304	-46.237	O.3	1	9HG3006	0.000	
17	 OAU	-3.220	-22.096	-48.128	O.3	1	9HG3006	0.000	
18	 CBB	3.097	-21.068	-49.654	C.3	1	9HG3006	0.000	
19	 NBC	5.102	-22.893	-50.742	N.3	1	9HG3006	0.000	
20	  C1	4.066	-17.633	-46.943	C.3	1	9HG3006	0.000	
21	  N1	2.149	-19.363	-47.774	N.2	1	9HG3006	0.000	
22	  C2	1.779	-18.476	-46.827	C.2	1	9HG3006	0.000	
23	  C3	2.240	-14.167	-45.967	C.3	1	9HG3006	0.000	
24	  N3	0.518	-18.476	-46.327	N.2	1	9HG3006	0.000	
25	  C4	-0.395	-19.367	-46.786	C.2	1	9HG3006	0.000	
26	  C5	-0.032	-20.301	-47.755	C.2	1	9HG3006	0.000	
27	  C6	1.276	-20.276	-48.250	C.2	1	9HG3006	0.000	
28	  C7	3.646	-14.476	-45.482	C.3	1	9HG3006	0.000	
29	  C8	1.546	-15.507	-46.160	C.3	1	9HG3006	0.000	
@<TRIPOS>BOND
1 1 16 1
2 2 17 1
3 3 19 1
4 4 12 ar
5 4 25 ar
6 5 13 ar
7 5 26 ar
8 6 7 1
9 6 28 1
10 7 14 1
11 7 29 1
12 8 10 1
13 8 18 1
14 9 11 1
15 9 18 1
16 10 19 1
17 11 19 1
18 12 13 ar
19 12 16 1
20 13 17 1
21 14 20 1
22 14 22 1
23 15 18 1
24 15 27 1
25 21 22 ar
26 21 27 ar
27 22 24 ar
28 23 28 1
29 23 29 1
30 24 25 ar
31 25 26 ar
32 26 27 ar
@<TRIPOS>SUBSTRUCTURE
1	9HG3006	1	GROUP	1 B	9HG
