@<TRIPOS>MOLECULE
5VSF.A
51 53 1 0 0 
SMALL
USER_CHARGES


@<TRIPOS>ATOM
  1 N        7.8140   -12.9130     7.1180 N.4   1 SAM  -0.8530 
  2 H1       6.8647   -13.2496     7.1935 H     1 SAM   0.4500 
  3 H2       7.9595   -12.1646     7.7804 H     1 SAM   0.4500 
  4 H3       8.4556   -13.6675     7.3162 H     1 SAM   0.4500 
  5 CA       8.0520   -12.4100     5.7440 C.3   1 SAM   0.3170 
  6 HA       9.0772   -12.0479     5.6670 H     1 SAM   0.0800 
  7 C        7.1080   -11.2730     5.4580 C.2   1 SAM   0.9060 
  8 O        6.3740   -10.8590     6.3930 O.co2 1 SAM  -0.9000 
  9 CB       7.8780   -13.5360     4.7180 C.3   1 SAM  -0.1600 
 10 HB1      7.5641   -13.1005     3.7694 H     1 SAM   0.0800 
 11 HB2      7.1089   -14.2205     5.0757 H     1 SAM   0.0800 
 12 CG       9.1740   -14.3240     4.4940 C.3   1 SAM  -0.1525 
 13 HG1      8.9287   -15.2400     3.9565 H     1 SAM   0.0800 
 14 HG2      9.5939   -14.5756     5.4679 H     1 SAM   0.0800 
 15 SD      10.3360   -13.4970     3.6190 S.3   1 SAM   0.9775 
 16 CE      10.6330   -14.4240     2.2740 C.3   1 SAM  -0.2325 
 17 HE1      9.7290   -14.4851     1.6680 H     1 SAM   0.0800 
 18 HE2     10.9323   -15.4258     2.5820 H     1 SAM   0.0800 
 19 HE3     11.4326   -13.9697     1.6890 H     1 SAM   0.0800 
 20 C5'     11.8030   -13.5000     4.4360 C.3   1 SAM  -0.1525 
 21 H5'1    12.5689   -13.1716     3.7334 H     1 SAM   0.0800 
 22 H5'2    12.0054   -14.5269     4.7402 H     1 SAM   0.0800 
 23 C4'     11.9190   -12.6130     5.6950 C.3   1 SAM   0.2000 
 24 H4'     11.6497   -11.6258     5.3195 H     1 SAM   0.0800 
 25 O4'     11.0690   -13.0380     6.7750 O.3   1 SAM  -0.5600 
 26 C3'     13.3100   -12.6640     6.3170 C.3   1 SAM   0.2000 
 27 H3'     13.7779   -13.6453     6.2383 H     1 SAM   0.0800 
 28 O3'     14.2260   -11.7830     5.6610 O.3   1 SAM  -0.6800 
 29 H3'     15.0631   -11.8343     6.1281 H     1 SAM   0.4000 
 30 C2'     13.0460   -12.2300     7.7400 C.3   1 SAM   0.2000 
 31 H2'     13.8625   -12.4287     8.4342 H     1 SAM   0.0800 
 32 O2'     12.7790   -10.8200     7.7590 O.3   1 SAM  -0.6800 
 33 H2'     13.5813   -10.3689     7.4862 H     1 SAM   0.4000 
 34 C1'     11.7570   -12.9630     8.0330 C.3   1 SAM   0.5691 
 35 H1'     11.1824   -12.4606     8.8112 H     1 SAM   0.0800 
 36 OXT      7.1080   -10.7740     4.2980 O.co2 1 SAM  -0.9000 
 37 N1      13.9370   -15.9130    11.6610 N.2   1 SAM  -0.6610 
 38 C2      13.8540   -14.5730    11.5980 C.2   1 SAM   0.6010 
 39 H2      14.2852   -13.9811    12.3918 H     1 SAM   0.0600 
 40 N3      13.2490   -13.9520    10.5740 N.2   1 SAM  -0.6610 
 41 C4      12.7110   -14.6950     9.5760 C.2   1 SAM   0.5000 
 42 C5      12.7780   -16.0810     9.6200 C.2   1 SAM   0.4500 
 43 C6      13.4100   -16.6960    10.6950 C.2   1 SAM   0.6110 
 44 N6      13.5150   -18.0520    10.7930 N.2   1 SAM  -0.2000 
 45 H62     13.9807   -18.4663    11.5877 H     1 SAM   0.4000 
 46 H61     13.1270   -18.6421    10.0709 H     1 SAM   0.4000 
 47 N7      12.1650   -16.5460     8.5060 N.2   1 SAM  -0.6960 
 48 C8      11.7300   -15.4710     7.8030 C.3   1 SAM   0.4551 
 49 H81     10.6476   -15.5250     7.6866 H     1 SAM   0.0800 
 50 H82     12.2012   -15.4630     6.8201 H     1 SAM   0.0800 
 51 N9      12.0550   -14.3500     8.4660 N.pl3 1 SAM  -0.7882 
@<TRIPOS>BOND
  1   1   2  1   
  2   1   3  1   
  3   1   4  1   
  4   1   5  1   
  5   5   6  1   
  6   5   7  1   
  7   5   9  1   
  8   7   8  ar  
  9   7  36  ar  
 10   9  10  1   
 11   9  11  1   
 12   9  12  1   
 13  12  13  1   
 14  12  14  1   
 15  12  15  1   
 16  15  16  1   
 17  15  20  1   
 18  16  17  1   
 19  16  18  1   
 20  16  19  1   
 21  20  21  1   
 22  20  22  1   
 23  20  23  1   
 24  23  24  1   
 25  23  25  1   
 26  23  26  1   
 27  25  34  1   
 28  26  27  1   
 29  26  28  1   
 30  26  30  1   
 31  28  29  1   
 32  30  31  1   
 33  30  32  1   
 34  30  34  1   
 35  32  33  1   
 36  34  35  1   
 37  34  51  1   
 38  37  38  2   
 39  37  43  1   
 40  38  39  1   
 41  38  40  1   
 42  40  41  2   
 43  41  42  1   
 44  41  51  1   
 45  42  43  1   
 46  42  47  2   
 47  43  44  2   
 48  44  45  1   
 49  44  46  1   
 50  47  48  1   
 51  48  49  1   
 52  48  50  1   
 53  48  51  1   
@<TRIPOS>SUBSTRUCTURE
  1 SAM  25 GROUP 4 A **** 0

# MOE 2022.02 (io_trps.svl 2020.11)
