# created with PyMOL 2.4.0
@<TRIPOS>MOLECULE
temp
50 52 1                 
SMALL
USER_CHARGES
@<TRIPOS>ATOM
1	   N	7.814	-12.913	7.118	N.4	1	SAM1	0.000	
2	  CA	8.052	-12.410	5.744	C.3	1	SAM1	0.000	
3	   C	7.108	-11.273	5.458	C.2	1	SAM1	0.000	
4	   O	6.374	-10.859	6.393	O.co2	1	SAM1	0.000	
5	  CB	7.878	-13.536	4.718	C.3	1	SAM1	0.000	
6	  CG	9.174	-14.324	4.494	C.3	1	SAM1	0.000	
7	  SD	10.336	-13.497	3.619	S.3	1	SAM1	0.000	
8	  CE	10.633	-14.424	2.274	C.3	1	SAM1	0.000	
9	 C5'	11.803	-13.500	4.436	C.3	1	SAM1	0.000	
10	 C4'	11.919	-12.613	5.695	C.3	1	SAM1	0.000	
11	 O4'	11.069	-13.038	6.775	O.3	1	SAM1	0.000	
12	 C3'	13.310	-12.664	6.317	C.3	1	SAM1	0.000	
13	 O3'	14.226	-11.783	5.661	O.3	1	SAM1	0.000	
14	 C2'	13.046	-12.230	7.740	C.3	1	SAM1	0.000	
15	 O2'	12.779	-10.820	7.759	O.3	1	SAM1	0.000	
16	 C1'	11.757	-12.963	8.033	C.3	1	SAM1	0.000	
17	 OXT	7.108	-10.774	4.298	O.co2	1	SAM1	0.000	
18	  N1	13.937	-15.913	11.661	N.2	1	SAM1	0.000	
19	  C2	13.854	-14.573	11.598	C.2	1	SAM1	0.000	
20	  N3	13.249	-13.952	10.574	N.2	1	SAM1	0.000	
21	  C4	12.711	-14.695	9.576	C.2	1	SAM1	0.000	
22	  C5	12.778	-16.081	9.620	C.2	1	SAM1	0.000	
23	  C6	13.410	-16.696	10.695	C.2	1	SAM1	0.000	
24	  N6	13.515	-18.052	10.793	N.pl3	1	SAM1	0.000	
25	  N7	12.165	-16.546	8.506	N.2	1	SAM1	0.000	
26	  C8	11.730	-15.471	7.803	C.2	1	SAM1	0.000	
27	  N9	12.055	-14.350	8.466	N.2	1	SAM1	0.000	
28	  HA	9.077	-12.048	5.667	 H	1	SAM1	0.000	
29	 HB1	7.564	-13.101	3.769	 H	1	SAM1	0.000	
30	 HB2	7.109	-14.220	5.076	 H	1	SAM1	0.000	
31	 HG1	8.929	-15.240	3.957	 H	1	SAM1	0.000	
32	 HG2	9.594	-14.576	5.468	 H	1	SAM1	0.000	
33	 HE1	9.729	-14.485	1.668	 H	1	SAM1	0.000	
34	 HE2	10.932	-15.426	2.582	 H	1	SAM1	0.000	
35	 HE3	11.433	-13.970	1.689	 H	1	SAM1	0.000	
36	  H1	6.865	-13.250	7.194	 H	1	SAM1	0.000	
37	  H2	7.959	-12.165	7.780	 H	1	SAM1	0.000	
38	  H2	14.285	-13.981	12.392	 H	1	SAM1	0.000	
39	  H3	8.456	-13.667	7.316	 H	1	SAM1	0.000	
40	  H8	11.206	-15.511	6.860	 H	1	SAM1	0.000	
41	 H1'	11.182	-12.461	8.811	 H	1	SAM1	0.000	
42	 H2'	13.863	-12.429	8.434	 H	1	SAM1	0.000	
43	 H2'	13.581	-10.369	7.486	 H	1	SAM1	0.000	
44	 H3'	13.778	-13.645	6.238	 H	1	SAM1	0.000	
45	 H3'	15.063	-11.834	6.128	 H	1	SAM1	0.000	
46	 H4'	11.650	-11.626	5.319	 H	1	SAM1	0.000	
47	 H61	13.127	-18.642	10.071	 H	1	SAM1	0.000	
48	 H62	13.981	-18.466	11.588	 H	1	SAM1	0.000	
49	H5'1	12.569	-13.172	3.733	 H	1	SAM1	0.000	
50	H5'2	12.005	-14.527	4.740	 H	1	SAM1	0.000	
@<TRIPOS>BOND
1 1 2 1
2 1 36 1
3 1 37 1
4 1 39 1
5 2 3 1
6 2 5 1
7 2 28 1
8 3 4 ar
9 3 17 ar
10 5 6 1
11 5 29 1
12 5 30 1
13 6 7 1
14 6 31 1
15 6 32 1
16 7 8 1
17 7 9 1
18 8 33 1
19 8 34 1
20 8 35 1
21 9 10 1
22 9 49 1
23 9 50 1
24 10 11 1
25 10 12 1
26 10 46 1
27 11 16 1
28 12 13 1
29 12 14 1
30 12 44 1
31 13 45 1
32 14 15 1
33 14 16 1
34 14 42 1
35 15 43 1
36 16 27 1
37 16 41 1
38 18 19 ar
39 18 23 ar
40 19 20 ar
41 19 38 1
42 20 21 ar
43 21 22 ar
44 21 27 ar
45 22 23 ar
46 22 25 ar
47 23 24 1
48 24 47 1
49 24 48 1
50 25 26 ar
51 26 27 ar
52 26 40 1
@<TRIPOS>SUBSTRUCTURE
1	SAM1	1	GROUP	1 A	SAM
