# created with PyMOL 2.5.0
@<TRIPOS>MOLECULE
5VSF
27 29 1                 
SMALL
USER_CHARGES
@<TRIPOS>ATOM
1	   N	7.814	-12.913	7.118	N.3	1	SAM3001	0.000	
2	  CA	8.052	-12.410	5.744	C.3	1	SAM3001	0.000	
3	   C	7.108	-11.273	5.458	C.2	1	SAM3001	0.000	
4	   O	6.374	-10.859	6.393	O.co2	1	SAM3001	0.000	
5	  CB	7.878	-13.536	4.718	C.3	1	SAM3001	0.000	
6	  CG	9.174	-14.324	4.494	C.3	1	SAM3001	0.000	
7	  SD	10.336	-13.497	3.619	S.3	1	SAM3001	0.000	
8	  CE	10.633	-14.424	2.274	C.3	1	SAM3001	0.000	
9	 C5'	11.803	-13.500	4.436	C.3	1	SAM3001	0.000	
10	 C4'	11.919	-12.613	5.695	C.3	1	SAM3001	0.000	
11	 O4'	11.069	-13.038	6.775	O.3	1	SAM3001	0.000	
12	 C3'	13.310	-12.664	6.317	C.3	1	SAM3001	0.000	
13	 O3'	14.226	-11.783	5.661	O.3	1	SAM3001	0.000	
14	 C2'	13.046	-12.230	7.740	C.3	1	SAM3001	0.000	
15	 O2'	12.779	-10.820	7.759	O.3	1	SAM3001	0.000	
16	 C1'	11.757	-12.963	8.033	C.3	1	SAM3001	0.000	
17	 OXT	7.108	-10.774	4.298	O.co2	1	SAM3001	0.000	
18	  N1	13.937	-15.913	11.661	N.2	1	SAM3001	0.000	
19	  C2	13.854	-14.573	11.598	C.2	1	SAM3001	0.000	
20	  N3	13.249	-13.952	10.574	N.2	1	SAM3001	0.000	
21	  C4	12.711	-14.695	9.576	C.2	1	SAM3001	0.000	
22	  C5	12.778	-16.081	9.620	C.2	1	SAM3001	0.000	
23	  C6	13.410	-16.696	10.695	C.2	1	SAM3001	0.000	
24	  N6	13.515	-18.052	10.793	N.pl3	1	SAM3001	0.000	
25	  N7	12.165	-16.546	8.506	N.2	1	SAM3001	0.000	
26	  C8	11.730	-15.471	7.803	C.2	1	SAM3001	0.000	
27	  N9	12.055	-14.350	8.466	N.2	1	SAM3001	0.000	
@<TRIPOS>BOND
1 1 2 1
2 2 3 1
3 2 5 1
4 3 4 ar
5 3 17 ar
6 5 6 1
7 6 7 1
8 7 8 1
9 7 9 1
10 9 10 1
11 10 11 1
12 10 12 1
13 11 16 1
14 12 13 1
15 12 14 1
16 14 15 1
17 14 16 1
18 16 27 1
19 18 19 ar
20 18 23 ar
21 19 20 ar
22 20 21 ar
23 21 22 ar
24 21 27 ar
25 22 23 ar
26 22 25 ar
27 23 24 1
28 25 26 ar
29 26 27 ar
@<TRIPOS>SUBSTRUCTURE
1	SAM3001	1	GROUP	1 A	SAM
