@<TRIPOS>MOLECULE
5VSF.B
51 53 1 0 0 
SMALL
USER_CHARGES


@<TRIPOS>ATOM
  1 N      -10.5320   -32.1720   -44.5670 N.4   1 SAM  -0.8530 
  2 H1     -11.1255   -32.5700   -43.8533 H     1 SAM   0.4500 
  3 H2     -10.4829   -32.8027   -45.3543 H     1 SAM   0.4500 
  4 H3     -10.9144   -31.2870   -44.8680 H     1 SAM   0.4500 
  5 CA      -9.1710   -31.9610   -44.0170 C.3   1 SAM   0.3170 
  6 HA      -8.5542   -31.5320   -44.8067 H     1 SAM   0.0800 
  7 C       -8.5810   -33.2700   -43.5770 C.2   1 SAM   0.9060 
  8 O       -9.1790   -34.3330   -43.8710 O.co2 1 SAM  -0.9000 
  9 CB      -9.1950   -30.9840   -42.8380 C.3   1 SAM  -0.1600 
 10 HB1     -8.3225   -31.1634   -42.2098 H     1 SAM   0.0800 
 11 HB2    -10.1018   -31.1508   -42.2565 H     1 SAM   0.0800 
 12 CG      -9.1720   -29.5330   -43.3210 C.3   1 SAM  -0.1525 
 13 HG1     -9.4459   -28.8895   -42.4850 H     1 SAM   0.0800 
 14 HG2     -9.9076   -29.4258   -44.1182 H     1 SAM   0.0800 
 15 SD      -7.6880   -29.0320   -43.9050 S.3   1 SAM   0.9775 
 16 CE      -7.1930   -27.7810   -42.9220 C.3   1 SAM  -0.2325 
 17 HE1     -7.0539   -28.1505   -41.9060 H     1 SAM   0.0800 
 18 HE2     -7.9500   -26.9967   -42.9230 H     1 SAM   0.0800 
 19 HE3     -6.2513   -27.3774   -43.2940 H     1 SAM   0.0800 
 20 C5'     -7.8620   -28.3350   -45.4170 C.3   1 SAM  -0.1525 
 21 H5'1    -6.9521   -27.7754   -45.6337 H     1 SAM   0.0800 
 22 H5'2    -8.7084   -27.6496   -45.3736 H     1 SAM   0.0800 
 23 C4'     -8.1030   -29.3050   -46.5750 C.3   1 SAM   0.2000 
 24 H4'     -7.2923   -30.0288   -46.4916 H     1 SAM   0.0800 
 25 O4'     -9.3880   -29.9510   -46.5120 O.3   1 SAM  -0.5600 
 26 C3'     -8.1180   -28.5740   -47.9120 C.3   1 SAM   0.2000 
 27 H3'     -8.5213   -27.5630   -47.8542 H     1 SAM   0.0800 
 28 O3'     -6.7970   -28.3740   -48.4290 O.3   1 SAM  -0.6800 
 29 H3'     -6.8819   -27.9511   -49.2866 H     1 SAM   0.4000 
 30 C2'     -8.9580   -29.4910   -48.7760 C.3   1 SAM   0.2000 
 31 H2'     -9.3083   -29.0275   -49.6982 H     1 SAM   0.0800 
 32 O2'     -8.2080   -30.6560   -49.1190 O.3   1 SAM  -0.6800 
 33 H2'     -7.4697   -30.3757   -49.6649 H     1 SAM   0.4000 
 34 C1'    -10.0320   -29.9160   -47.7960 C.3   1 SAM   0.5691 
 35 H1'    -10.4688   -30.8800   -48.0568 H     1 SAM   0.0800 
 36 OXT     -7.5020   -33.2360   -42.9400 O.co2 1 SAM  -0.9000 
 37 N1     -13.9120   -27.7540   -50.4900 N.2   1 SAM  -0.6610 
 38 C2     -13.0570   -28.7230   -50.8620 C.2   1 SAM   0.6010 
 39 H2     -13.1439   -29.1460   -51.8519 H     1 SAM   0.0600 
 40 N3     -12.0980   -29.1810   -50.0400 N.2   1 SAM  -0.6610 
 41 C4     -11.9660   -28.6560   -48.7920 C.2   1 SAM   0.5000 
 42 C5     -12.8240   -27.6530   -48.3790 C.2   1 SAM   0.4500 
 43 C6     -13.8080   -27.1990   -49.2550 C.2   1 SAM   0.6110 
 44 N6     -14.6670   -26.2240   -48.8780 N.2   1 SAM  -0.2000 
 45 H62    -15.3772   -25.9009   -49.5194 H     1 SAM   0.4000 
 46 H61    -14.5980   -25.8192   -47.9552 H     1 SAM   0.4000 
 47 N7     -12.4740   -27.3120   -47.1090 N.2   1 SAM  -0.6960 
 48 C8     -11.4280   -28.0890   -46.7550 C.3   1 SAM   0.4551 
 49 H81    -11.6942   -28.6858   -45.8826 H     1 SAM   0.0800 
 50 H82    -10.5695   -27.4609   -46.5172 H     1 SAM   0.0800 
 51 N9     -11.1210   -28.9050   -47.7860 N.pl3 1 SAM  -0.7882 
@<TRIPOS>BOND
  1   1   2  1   
  2   1   3  1   
  3   1   4  1   
  4   1   5  1   
  5   5   6  1   
  6   5   7  1   
  7   5   9  1   
  8   7   8  ar  
  9   7  36  ar  
 10   9  10  1   
 11   9  11  1   
 12   9  12  1   
 13  12  13  1   
 14  12  14  1   
 15  12  15  1   
 16  15  16  1   
 17  15  20  1   
 18  16  17  1   
 19  16  18  1   
 20  16  19  1   
 21  20  21  1   
 22  20  22  1   
 23  20  23  1   
 24  23  24  1   
 25  23  25  1   
 26  23  26  1   
 27  25  34  1   
 28  26  27  1   
 29  26  28  1   
 30  26  30  1   
 31  28  29  1   
 32  30  31  1   
 33  30  32  1   
 34  30  34  1   
 35  32  33  1   
 36  34  35  1   
 37  34  51  1   
 38  37  38  2   
 39  37  43  1   
 40  38  39  1   
 41  38  40  1   
 42  40  41  2   
 43  41  42  1   
 44  41  51  1   
 45  42  43  1   
 46  42  47  2   
 47  43  44  2   
 48  44  45  1   
 49  44  46  1   
 50  47  48  1   
 51  48  49  1   
 52  48  50  1   
 53  48  51  1   
@<TRIPOS>SUBSTRUCTURE
  1 SAM  25 GROUP 4 B **** 0

# MOE 2022.02 (io_trps.svl 2020.11)
