# created with PyMOL 2.5.0
@<TRIPOS>MOLECULE
5VSF
27 29 1                 
SMALL
USER_CHARGES
@<TRIPOS>ATOM
1	   N	-10.532	-32.172	-44.567	N.3	1	SAM3001	0.000	
2	  CA	-9.171	-31.961	-44.017	C.3	1	SAM3001	0.000	
3	   C	-8.581	-33.270	-43.577	C.2	1	SAM3001	0.000	
4	   O	-9.179	-34.333	-43.871	O.co2	1	SAM3001	0.000	
5	  CB	-9.195	-30.984	-42.838	C.3	1	SAM3001	0.000	
6	  CG	-9.172	-29.533	-43.321	C.3	1	SAM3001	0.000	
7	  SD	-7.688	-29.032	-43.905	S.3	1	SAM3001	0.000	
8	  CE	-7.193	-27.781	-42.922	C.3	1	SAM3001	0.000	
9	 C5'	-7.862	-28.335	-45.417	C.3	1	SAM3001	0.000	
10	 C4'	-8.103	-29.305	-46.575	C.3	1	SAM3001	0.000	
11	 O4'	-9.388	-29.951	-46.512	O.3	1	SAM3001	0.000	
12	 C3'	-8.118	-28.574	-47.912	C.3	1	SAM3001	0.000	
13	 O3'	-6.797	-28.374	-48.429	O.3	1	SAM3001	0.000	
14	 C2'	-8.958	-29.491	-48.776	C.3	1	SAM3001	0.000	
15	 O2'	-8.208	-30.656	-49.119	O.3	1	SAM3001	0.000	
16	 C1'	-10.032	-29.916	-47.796	C.3	1	SAM3001	0.000	
17	 OXT	-7.502	-33.236	-42.940	O.co2	1	SAM3001	0.000	
18	  N1	-13.912	-27.754	-50.490	N.2	1	SAM3001	0.000	
19	  C2	-13.057	-28.723	-50.862	C.2	1	SAM3001	0.000	
20	  N3	-12.098	-29.181	-50.040	N.2	1	SAM3001	0.000	
21	  C4	-11.966	-28.656	-48.792	C.2	1	SAM3001	0.000	
22	  C5	-12.824	-27.653	-48.379	C.2	1	SAM3001	0.000	
23	  C6	-13.808	-27.199	-49.255	C.2	1	SAM3001	0.000	
24	  N6	-14.667	-26.224	-48.878	N.pl3	1	SAM3001	0.000	
25	  N7	-12.474	-27.312	-47.109	N.2	1	SAM3001	0.000	
26	  C8	-11.428	-28.089	-46.755	C.2	1	SAM3001	0.000	
27	  N9	-11.121	-28.905	-47.786	N.2	1	SAM3001	0.000	
@<TRIPOS>BOND
1 1 2 1
2 2 3 1
3 2 5 1
4 3 4 ar
5 3 17 ar
6 5 6 1
7 6 7 1
8 7 8 1
9 7 9 1
10 9 10 1
11 10 11 1
12 10 12 1
13 11 16 1
14 12 13 1
15 12 14 1
16 14 15 1
17 14 16 1
18 16 27 1
19 18 19 ar
20 18 23 ar
21 19 20 ar
22 20 21 ar
23 21 22 ar
24 21 27 ar
25 22 23 ar
26 22 25 ar
27 23 24 1
28 25 26 ar
29 26 27 ar
@<TRIPOS>SUBSTRUCTURE
1	SAM3001	1	GROUP	1 B	SAM
