# created with PyMOL 2.4.0
@<TRIPOS>MOLECULE
temp
50 52 1                 
SMALL
USER_CHARGES
@<TRIPOS>ATOM
1	   N	-10.532	-32.172	-44.567	N.4	1	SAM1	0.000	
2	  CA	-9.171	-31.961	-44.017	C.3	1	SAM1	0.000	
3	   C	-8.581	-33.270	-43.577	C.2	1	SAM1	0.000	
4	   O	-9.179	-34.333	-43.871	O.co2	1	SAM1	0.000	
5	  CB	-9.195	-30.984	-42.838	C.3	1	SAM1	0.000	
6	  CG	-9.172	-29.533	-43.321	C.3	1	SAM1	0.000	
7	  SD	-7.688	-29.032	-43.905	S.3	1	SAM1	0.000	
8	  CE	-7.193	-27.781	-42.922	C.3	1	SAM1	0.000	
9	 C5'	-7.862	-28.335	-45.417	C.3	1	SAM1	0.000	
10	 C4'	-8.103	-29.305	-46.575	C.3	1	SAM1	0.000	
11	 O4'	-9.388	-29.951	-46.512	O.3	1	SAM1	0.000	
12	 C3'	-8.118	-28.574	-47.912	C.3	1	SAM1	0.000	
13	 O3'	-6.797	-28.374	-48.429	O.3	1	SAM1	0.000	
14	 C2'	-8.958	-29.491	-48.776	C.3	1	SAM1	0.000	
15	 O2'	-8.208	-30.656	-49.119	O.3	1	SAM1	0.000	
16	 C1'	-10.032	-29.916	-47.796	C.3	1	SAM1	0.000	
17	 OXT	-7.502	-33.236	-42.940	O.co2	1	SAM1	0.000	
18	  N1	-13.912	-27.754	-50.490	N.2	1	SAM1	0.000	
19	  C2	-13.057	-28.723	-50.862	C.2	1	SAM1	0.000	
20	  N3	-12.098	-29.181	-50.040	N.2	1	SAM1	0.000	
21	  C4	-11.966	-28.656	-48.792	C.2	1	SAM1	0.000	
22	  C5	-12.824	-27.653	-48.379	C.2	1	SAM1	0.000	
23	  C6	-13.808	-27.199	-49.255	C.2	1	SAM1	0.000	
24	  N6	-14.667	-26.224	-48.878	N.pl3	1	SAM1	0.000	
25	  N7	-12.474	-27.312	-47.109	N.2	1	SAM1	0.000	
26	  C8	-11.428	-28.089	-46.755	C.2	1	SAM1	0.000	
27	  N9	-11.121	-28.905	-47.786	N.2	1	SAM1	0.000	
28	  HA	-8.554	-31.532	-44.807	 H	1	SAM1	0.000	
29	 HB1	-8.323	-31.163	-42.210	 H	1	SAM1	0.000	
30	 HB2	-10.102	-31.151	-42.257	 H	1	SAM1	0.000	
31	 HG1	-9.446	-28.889	-42.485	 H	1	SAM1	0.000	
32	 HG2	-9.908	-29.426	-44.118	 H	1	SAM1	0.000	
33	 HE1	-7.054	-28.150	-41.906	 H	1	SAM1	0.000	
34	 HE2	-7.950	-26.997	-42.923	 H	1	SAM1	0.000	
35	 HE3	-6.251	-27.377	-43.294	 H	1	SAM1	0.000	
36	  H1	-11.125	-32.570	-43.853	 H	1	SAM1	0.000	
37	  H2	-10.483	-32.803	-45.354	 H	1	SAM1	0.000	
38	  H2	-13.144	-29.146	-51.852	 H	1	SAM1	0.000	
39	  H3	-10.914	-31.287	-44.868	 H	1	SAM1	0.000	
40	  H8	-10.920	-28.062	-45.802	 H	1	SAM1	0.000	
41	 H1'	-10.469	-30.880	-48.057	 H	1	SAM1	0.000	
42	 H2'	-9.308	-29.028	-49.698	 H	1	SAM1	0.000	
43	 H2'	-7.470	-30.376	-49.665	 H	1	SAM1	0.000	
44	 H3'	-8.521	-27.563	-47.854	 H	1	SAM1	0.000	
45	 H3'	-6.882	-27.951	-49.287	 H	1	SAM1	0.000	
46	 H4'	-7.292	-30.029	-46.492	 H	1	SAM1	0.000	
47	 H61	-14.598	-25.819	-47.955	 H	1	SAM1	0.000	
48	 H62	-15.377	-25.901	-49.519	 H	1	SAM1	0.000	
49	H5'1	-6.952	-27.775	-45.634	 H	1	SAM1	0.000	
50	H5'2	-8.708	-27.650	-45.374	 H	1	SAM1	0.000	
@<TRIPOS>BOND
1 1 2 1
2 1 36 1
3 1 37 1
4 1 39 1
5 2 3 1
6 2 5 1
7 2 28 1
8 3 4 ar
9 3 17 ar
10 5 6 1
11 5 29 1
12 5 30 1
13 6 7 1
14 6 31 1
15 6 32 1
16 7 8 1
17 7 9 1
18 8 33 1
19 8 34 1
20 8 35 1
21 9 10 1
22 9 49 1
23 9 50 1
24 10 11 1
25 10 12 1
26 10 46 1
27 11 16 1
28 12 13 1
29 12 14 1
30 12 44 1
31 13 45 1
32 14 15 1
33 14 16 1
34 14 42 1
35 15 43 1
36 16 27 1
37 16 41 1
38 18 19 ar
39 18 23 ar
40 19 20 ar
41 19 38 1
42 20 21 ar
43 21 22 ar
44 21 27 ar
45 22 23 ar
46 22 25 ar
47 23 24 1
48 24 47 1
49 24 48 1
50 25 26 ar
51 26 27 ar
52 26 40 1
@<TRIPOS>SUBSTRUCTURE
1	SAM1	1	GROUP	1 B	SAM
