@<TRIPOS>MOLECULE
5JHN.A
51 53 1 0 0 
SMALL
USER_CHARGES


@<TRIPOS>ATOM
  1 N       71.3770    -1.7330    25.1990 N.4   1 SAM  -0.8530 
  2 H1      71.1693    -2.6923    25.4373 H     1 SAM   0.4500 
  3 H2      72.3622    -1.6423    24.9957 H     1 SAM   0.4500 
  4 H3      70.8396    -1.4638    24.3873 H     1 SAM   0.4500 
  5 CA      71.0250    -0.8540    26.3380 C.3   1 SAM   0.3170 
  6 HA      71.2372     0.1914    26.1137 H     1 SAM   0.0800 
  7 C       71.8750    -1.2420    27.5240 C.2   1 SAM   0.9060 
  8 O       71.6050    -0.6940    28.5860 O.co2 1 SAM  -0.9000 
  9 CB      69.5310    -0.9280    26.6060 C.3   1 SAM  -0.1600 
 10 HB1     69.3506    -0.6243    27.6372 H     1 SAM   0.0800 
 11 HB2     69.2073    -1.9598    26.4692 H     1 SAM   0.0800 
 12 CG      68.6930    -0.0290    25.6810 C.3   1 SAM  -0.1525 
 13 HG1     67.6411    -0.2960    25.7831 H     1 SAM   0.0800 
 14 HG2     69.0094    -0.1865    24.6499 H     1 SAM   0.0800 
 15 SD      68.8970     1.6750    26.0920 S.3   1 SAM   0.9775 
 16 CE      67.3450     2.2090    26.2810 C.3   1 SAM  -0.2325 
 17 HE1     66.9181     1.7727    27.1841 H     1 SAM   0.0800 
 18 HE2     66.7505     1.9109    25.4174 H     1 SAM   0.0800 
 19 HE3     67.3425     3.2957    26.3662 H     1 SAM   0.0800 
 20 C5'     69.2790     2.5100    24.6350 C.3   1 SAM  -0.1525 
 21 H5'1    69.0689     3.5703    24.7755 H     1 SAM   0.0800 
 22 H5'2    68.6519     2.1184    23.8341 H     1 SAM   0.0800 
 23 C4'     70.7310     2.3530    24.2340 C.3   1 SAM   0.2000 
 24 H4'     71.2937     2.6323    25.1248 H     1 SAM   0.0800 
 25 O4'     71.0570     0.9750    23.8140 O.3   1 SAM  -0.5600 
 26 C3'     71.0870     3.2430    23.0280 C.3   1 SAM   0.2000 
 27 H3'     70.2606     3.3803    22.3306 H     1 SAM   0.0800 
 28 O3'     71.4280     4.5760    23.4080 O.3   1 SAM  -0.6800 
 29 H3'     71.6811     5.0490    22.6119 H     1 SAM   0.4000 
 30 C2'     72.2550     2.5180    22.4650 C.3   1 SAM   0.2000 
 31 H2'     72.4648     2.9097    21.4697 H     1 SAM   0.0800 
 32 O2'     73.4370     2.6140    23.2880 O.3   1 SAM  -0.6800 
 33 H2'     73.6796     3.5414    23.3405 H     1 SAM   0.4000 
 34 C1'     71.8760     1.0670    22.6010 C.3   1 SAM   0.5691 
 35 H1'     72.7660     0.4386    22.6356 H     1 SAM   0.0800 
 36 OXT     72.7730    -2.1200    27.4060 O.co2 1 SAM  -0.9000 
 37 N1      71.8510    -0.0140    17.6150 N.2   1 SAM  -0.6610 
 38 C2      72.8720     0.4020    18.3700 C.2   1 SAM   0.6010 
 39 H2      73.8333     0.5626    17.9047 H     1 SAM   0.0600 
 40 N3      72.7420     0.6300    19.7040 N.2   1 SAM  -0.6610 
 41 C4      71.4910     0.5090    20.2290 C.2   1 SAM   0.5000 
 42 C5      70.3650     0.1140    19.4650 C.2   1 SAM   0.4500 
 43 C6      70.5960    -0.1500    18.0400 C.2   1 SAM   0.6110 
 44 N6      69.5600    -0.5250    17.2760 N.2   1 SAM  -0.2000 
 45 H62     69.6987    -0.7112    16.2931 H     1 SAM   0.4000 
 46 H61     68.6408    -0.6212    17.6834 H     1 SAM   0.4000 
 47 N7      69.2820     0.0650    20.2630 N.2   1 SAM  -0.6960 
 48 C8      69.7390     0.3720    21.5060 C.3   1 SAM   0.4551 
 49 H81     69.5775    -0.4781    22.1688 H     1 SAM   0.0800 
 50 H82     69.1953     1.2371    21.8857 H     1 SAM   0.0800 
 51 N9      71.0320     0.6530    21.4630 N.pl3 1 SAM  -0.7882 
@<TRIPOS>BOND
  1   1   2  1   
  2   1   3  1   
  3   1   4  1   
  4   1   5  1   
  5   5   6  1   
  6   5   7  1   
  7   5   9  1   
  8   7   8  ar  
  9   7  36  ar  
 10   9  10  1   
 11   9  11  1   
 12   9  12  1   
 13  12  13  1   
 14  12  14  1   
 15  12  15  1   
 16  15  16  1   
 17  15  20  1   
 18  16  17  1   
 19  16  18  1   
 20  16  19  1   
 21  20  21  1   
 22  20  22  1   
 23  20  23  1   
 24  23  24  1   
 25  23  25  1   
 26  23  26  1   
 27  25  34  1   
 28  26  27  1   
 29  26  28  1   
 30  26  30  1   
 31  28  29  1   
 32  30  31  1   
 33  30  32  1   
 34  30  34  1   
 35  32  33  1   
 36  34  35  1   
 37  34  51  1   
 38  37  38  2   
 39  37  43  1   
 40  38  39  1   
 41  38  40  1   
 42  40  41  2   
 43  41  42  1   
 44  41  51  1   
 45  42  43  1   
 46  42  47  2   
 47  43  44  2   
 48  44  45  1   
 49  44  46  1   
 50  47  48  1   
 51  48  49  1   
 52  48  50  1   
 53  48  51  1   
@<TRIPOS>SUBSTRUCTURE
  1 SAM  25 GROUP 4 A **** 0

# MOE 2022.02 (io_trps.svl 2020.11)
