@<TRIPOS>MOLECULE
5JHN.B
51 53 1 0 0 
SMALL
USER_CHARGES


@<TRIPOS>ATOM
  1 N       27.4600    -1.2330    62.1250 N.4   1 SAM  -0.8530 
  2 H1      27.6130    -2.1614    61.7580 H     1 SAM   0.4500 
  3 H2      26.4812    -1.1146    62.3441 H     1 SAM   0.4500 
  4 H3      28.0101    -1.1072    62.9627 H     1 SAM   0.4500 
  5 CA      27.8650    -0.2280    61.1120 C.3   1 SAM   0.3170 
  6 HA      27.7290     0.8038    61.4359 H     1 SAM   0.0800 
  7 C       27.0210    -0.4660    59.8870 C.2   1 SAM   0.9060 
  8 O       27.3570     0.1240    58.8430 O.co2 1 SAM  -0.9000 
  9 CB      29.3580    -0.4990    60.8230 C.3   1 SAM  -0.1600 
 10 HB1     29.5591    -0.2129    59.7906 H     1 SAM   0.0800 
 11 HB2     29.5368    -1.5672    60.9454 H     1 SAM   0.0800 
 12 CG      30.3170     0.2330    61.7000 C.3   1 SAM  -0.1525 
 13 HG1     31.3183    -0.1276    61.4644 H     1 SAM   0.0800 
 14 HG2     30.0743    -0.0174    62.7327 H     1 SAM   0.0800 
 15 SD      30.3410     1.9320    61.5760 S.3   1 SAM   0.9775 
 16 CE      31.9550     2.3750    61.5360 C.3   1 SAM  -0.2325 
 17 HE1     32.4282     1.9442    60.6537 H     1 SAM   0.0800 
 18 HE2     32.4549     2.0078    62.4323 H     1 SAM   0.0800 
 19 HE3     32.0327     3.4615    61.4960 H     1 SAM   0.0800 
 20 C5'     29.9540     2.7380    63.0020 C.3   1 SAM  -0.1525 
 21 H5'1    30.2623     3.7780    62.8951 H     1 SAM   0.0800 
 22 H5'2    30.5148     2.2744    63.8136 H     1 SAM   0.0800 
 23 C4'     28.4600     2.7210    63.3850 C.3   1 SAM   0.2000 
 24 H4'     27.9110     3.1056    62.5255 H     1 SAM   0.0800 
 25 O4'     28.1310     1.3620    63.8140 O.3   1 SAM  -0.5600 
 26 C3'     28.1740     3.5350    64.6670 C.3   1 SAM   0.2000 
 27 H3'     29.0420     3.5542    65.3260 H     1 SAM   0.0800 
 28 O3'     27.9150     4.9300    64.4810 O.3   1 SAM  -0.6800 
 29 H3'     27.7383     5.3101    65.3447 H     1 SAM   0.4000 
 30 C2'     26.9530     2.8370    65.1820 C.3   1 SAM   0.2000 
 31 H2'     26.7700     3.1339    66.2147 H     1 SAM   0.0800 
 32 O2'     25.8010     3.1120    64.3820 O.3   1 SAM  -0.6800 
 33 H2'     25.6332     4.0560    64.4296 H     1 SAM   0.4000 
 34 C1'     27.2290     1.3660    64.9190 C.3   1 SAM   0.5691 
 35 H1'     26.2977     0.8245    64.7528 H     1 SAM   0.0800 
 36 OXT     26.0650    -1.2850    59.9440 O.co2 1 SAM  -0.9000 
 37 N1      27.1190    -0.1770    69.9160 N.2   1 SAM  -0.6610 
 38 C2      26.1430     0.3910    69.1490 C.2   1 SAM   0.6010 
 39 H2      25.1927     0.5893    69.6223 H     1 SAM   0.0600 
 40 N3      26.2690     0.7250    67.8470 N.2   1 SAM  -0.6610 
 41 C4      27.4780     0.5130    67.2780 C.2   1 SAM   0.5000 
 42 C5      28.5710    -0.1080    68.0180 C.2   1 SAM   0.4500 
 43 C6      28.3810    -0.4510    69.4250 C.2   1 SAM   0.6110 
 44 N6      29.4060    -1.0290    70.0840 N.2   1 SAM  -0.2000 
 45 H62     29.3043    -1.2775    71.0577 H     1 SAM   0.4000 
 46 H61     30.2752    -1.2133    69.6039 H     1 SAM   0.4000 
 47 N7      29.6380    -0.2310    67.1840 N.2   1 SAM  -0.6960 
 48 C8      29.2270     0.3300    65.9980 C.3   1 SAM   0.4551 
 49 H81     29.3247    -0.4092    65.2029 H     1 SAM   0.0800 
 50 H82     29.8585     1.1898    65.7743 H     1 SAM   0.0800 
 51 N9      27.9470     0.7330    66.0660 N.pl3 1 SAM  -0.7882 
@<TRIPOS>BOND
  1   1   2  1   
  2   1   3  1   
  3   1   4  1   
  4   1   5  1   
  5   5   6  1   
  6   5   7  1   
  7   5   9  1   
  8   7   8  ar  
  9   7  36  ar  
 10   9  10  1   
 11   9  11  1   
 12   9  12  1   
 13  12  13  1   
 14  12  14  1   
 15  12  15  1   
 16  15  16  1   
 17  15  20  1   
 18  16  17  1   
 19  16  18  1   
 20  16  19  1   
 21  20  21  1   
 22  20  22  1   
 23  20  23  1   
 24  23  24  1   
 25  23  25  1   
 26  23  26  1   
 27  25  34  1   
 28  26  27  1   
 29  26  28  1   
 30  26  30  1   
 31  28  29  1   
 32  30  31  1   
 33  30  32  1   
 34  30  34  1   
 35  32  33  1   
 36  34  35  1   
 37  34  51  1   
 38  37  38  2   
 39  37  43  1   
 40  38  39  1   
 41  38  40  1   
 42  40  41  2   
 43  41  42  1   
 44  41  51  1   
 45  42  43  1   
 46  42  47  2   
 47  43  44  2   
 48  44  45  1   
 49  44  46  1   
 50  47  48  1   
 51  48  49  1   
 52  48  50  1   
 53  48  51  1   
@<TRIPOS>SUBSTRUCTURE
  1 SAM  25 GROUP 4 B **** 0

# MOE 2022.02 (io_trps.svl 2020.11)
