# created with PyMOL 2.5.0
@<TRIPOS>MOLECULE
5JHN
27 29 1                 
SMALL
USER_CHARGES
@<TRIPOS>ATOM
1	   N	27.460	-1.233	62.125	N.3	1	SAM1205	0.000	
2	  CA	27.865	-0.228	61.112	C.3	1	SAM1205	0.000	
3	   C	27.021	-0.466	59.887	C.2	1	SAM1205	0.000	
4	   O	27.357	0.124	58.843	O.co2	1	SAM1205	0.000	
5	  CB	29.358	-0.499	60.823	C.3	1	SAM1205	0.000	
6	  CG	30.317	0.233	61.700	C.3	1	SAM1205	0.000	
7	  SD	30.341	1.932	61.576	S.3	1	SAM1205	0.000	
8	  CE	31.955	2.375	61.536	C.3	1	SAM1205	0.000	
9	 C5'	29.954	2.738	63.002	C.3	1	SAM1205	0.000	
10	 C4'	28.460	2.721	63.385	C.3	1	SAM1205	0.000	
11	 O4'	28.131	1.362	63.814	O.3	1	SAM1205	0.000	
12	 C3'	28.174	3.535	64.667	C.3	1	SAM1205	0.000	
13	 O3'	27.915	4.930	64.481	O.3	1	SAM1205	0.000	
14	 C2'	26.953	2.837	65.182	C.3	1	SAM1205	0.000	
15	 O2'	25.801	3.112	64.382	O.3	1	SAM1205	0.000	
16	 C1'	27.229	1.366	64.919	C.3	1	SAM1205	0.000	
17	 OXT	26.065	-1.285	59.944	O.co2	1	SAM1205	0.000	
18	  N1	27.119	-0.177	69.916	N.2	1	SAM1205	0.000	
19	  C2	26.143	0.391	69.149	C.2	1	SAM1205	0.000	
20	  N3	26.269	0.725	67.847	N.2	1	SAM1205	0.000	
21	  C4	27.478	0.513	67.278	C.2	1	SAM1205	0.000	
22	  C5	28.571	-0.108	68.018	C.2	1	SAM1205	0.000	
23	  C6	28.381	-0.451	69.425	C.2	1	SAM1205	0.000	
24	  N6	29.406	-1.029	70.084	N.pl3	1	SAM1205	0.000	
25	  N7	29.638	-0.231	67.184	N.2	1	SAM1205	0.000	
26	  C8	29.227	0.330	65.998	C.2	1	SAM1205	0.000	
27	  N9	27.947	0.733	66.066	N.2	1	SAM1205	0.000	
@<TRIPOS>BOND
1 1 2 1
2 2 3 1
3 2 5 1
4 3 4 ar
5 3 17 ar
6 5 6 1
7 6 7 1
8 7 8 1
9 7 9 1
10 9 10 1
11 10 11 1
12 10 12 1
13 11 16 1
14 12 13 1
15 12 14 1
16 14 15 1
17 14 16 1
18 16 27 1
19 18 19 ar
20 18 23 ar
21 19 20 ar
22 20 21 ar
23 21 22 ar
24 21 27 ar
25 22 23 ar
26 22 25 ar
27 23 24 1
28 25 26 ar
29 26 27 ar
@<TRIPOS>SUBSTRUCTURE
1	SAM1205	1	GROUP	1 B	SAM
