# created with PyMOL 2.5.0
@<TRIPOS>MOLECULE
5JHN
27 29 1                 
SMALL
USER_CHARGES
@<TRIPOS>ATOM
1	   N	71.377	-1.733	25.199	N.3	1	SAM1205	0.000	
2	  CA	71.025	-0.854	26.338	C.3	1	SAM1205	0.000	
3	   C	71.875	-1.242	27.524	C.2	1	SAM1205	0.000	
4	   O	71.605	-0.694	28.586	O.co2	1	SAM1205	0.000	
5	  CB	69.531	-0.928	26.606	C.3	1	SAM1205	0.000	
6	  CG	68.693	-0.029	25.681	C.3	1	SAM1205	0.000	
7	  SD	68.897	1.675	26.092	S.3	1	SAM1205	0.000	
8	  CE	67.345	2.209	26.281	C.3	1	SAM1205	0.000	
9	 C5'	69.279	2.510	24.635	C.3	1	SAM1205	0.000	
10	 C4'	70.731	2.353	24.234	C.3	1	SAM1205	0.000	
11	 O4'	71.057	0.975	23.814	O.3	1	SAM1205	0.000	
12	 C3'	71.087	3.243	23.028	C.3	1	SAM1205	0.000	
13	 O3'	71.428	4.576	23.408	O.3	1	SAM1205	0.000	
14	 C2'	72.255	2.518	22.465	C.3	1	SAM1205	0.000	
15	 O2'	73.437	2.614	23.288	O.3	1	SAM1205	0.000	
16	 C1'	71.876	1.067	22.601	C.3	1	SAM1205	0.000	
17	 OXT	72.773	-2.120	27.406	O.co2	1	SAM1205	0.000	
18	  N1	71.851	-0.014	17.615	N.2	1	SAM1205	0.000	
19	  C2	72.872	0.402	18.370	C.2	1	SAM1205	0.000	
20	  N3	72.742	0.630	19.704	N.2	1	SAM1205	0.000	
21	  C4	71.491	0.509	20.229	C.2	1	SAM1205	0.000	
22	  C5	70.365	0.114	19.465	C.2	1	SAM1205	0.000	
23	  C6	70.596	-0.150	18.040	C.2	1	SAM1205	0.000	
24	  N6	69.560	-0.525	17.276	N.pl3	1	SAM1205	0.000	
25	  N7	69.282	0.065	20.263	N.2	1	SAM1205	0.000	
26	  C8	69.739	0.372	21.506	C.2	1	SAM1205	0.000	
27	  N9	71.032	0.653	21.463	N.2	1	SAM1205	0.000	
@<TRIPOS>BOND
1 1 2 1
2 2 3 1
3 2 5 1
4 3 4 ar
5 3 17 ar
6 5 6 1
7 6 7 1
8 7 8 1
9 7 9 1
10 9 10 1
11 10 11 1
12 10 12 1
13 11 16 1
14 12 13 1
15 12 14 1
16 14 15 1
17 14 16 1
18 16 27 1
19 18 19 ar
20 18 23 ar
21 19 20 ar
22 20 21 ar
23 21 22 ar
24 21 27 ar
25 22 23 ar
26 22 25 ar
27 23 24 1
28 25 26 ar
29 26 27 ar
@<TRIPOS>SUBSTRUCTURE
1	SAM1205	1	GROUP	1 A	SAM
