# created with PyMOL 2.4.0
@<TRIPOS>MOLECULE
temp
50 52 1                 
SMALL
USER_CHARGES
@<TRIPOS>ATOM
1	   N	71.377	-1.733	25.199	N.4	1	SAM1	0.000	
2	  CA	71.025	-0.854	26.338	C.3	1	SAM1	0.000	
3	   C	71.875	-1.242	27.524	C.2	1	SAM1	0.000	
4	   O	71.605	-0.694	28.586	O.co2	1	SAM1	0.000	
5	  CB	69.531	-0.928	26.606	C.3	1	SAM1	0.000	
6	  CG	68.693	-0.029	25.681	C.3	1	SAM1	0.000	
7	  SD	68.897	1.675	26.092	S.3	1	SAM1	0.000	
8	  CE	67.345	2.209	26.281	C.3	1	SAM1	0.000	
9	 C5'	69.279	2.510	24.635	C.3	1	SAM1	0.000	
10	 C4'	70.731	2.353	24.234	C.3	1	SAM1	0.000	
11	 O4'	71.057	0.975	23.814	O.3	1	SAM1	0.000	
12	 C3'	71.087	3.243	23.028	C.3	1	SAM1	0.000	
13	 O3'	71.428	4.576	23.408	O.3	1	SAM1	0.000	
14	 C2'	72.255	2.518	22.465	C.3	1	SAM1	0.000	
15	 O2'	73.437	2.614	23.288	O.3	1	SAM1	0.000	
16	 C1'	71.876	1.067	22.601	C.3	1	SAM1	0.000	
17	 OXT	72.773	-2.120	27.406	O.co2	1	SAM1	0.000	
18	  N1	71.851	-0.014	17.615	N.2	1	SAM1	0.000	
19	  C2	72.872	0.402	18.370	C.2	1	SAM1	0.000	
20	  N3	72.742	0.630	19.704	N.2	1	SAM1	0.000	
21	  C4	71.491	0.509	20.229	C.2	1	SAM1	0.000	
22	  C5	70.365	0.114	19.465	C.2	1	SAM1	0.000	
23	  C6	70.596	-0.150	18.040	C.2	1	SAM1	0.000	
24	  N6	69.560	-0.525	17.276	N.pl3	1	SAM1	0.000	
25	  N7	69.282	0.065	20.263	N.2	1	SAM1	0.000	
26	  C8	69.739	0.372	21.506	C.2	1	SAM1	0.000	
27	  N9	71.032	0.653	21.463	N.2	1	SAM1	0.000	
28	  HA	71.237	0.191	26.114	 H	1	SAM1	0.000	
29	 HB1	69.351	-0.624	27.637	 H	1	SAM1	0.000	
30	 HB2	69.207	-1.960	26.469	 H	1	SAM1	0.000	
31	 HG1	67.641	-0.296	25.783	 H	1	SAM1	0.000	
32	 HG2	69.009	-0.186	24.650	 H	1	SAM1	0.000	
33	 HE1	66.918	1.773	27.184	 H	1	SAM1	0.000	
34	 HE2	66.751	1.911	25.417	 H	1	SAM1	0.000	
35	 HE3	67.342	3.296	26.366	 H	1	SAM1	0.000	
36	  H1	71.169	-2.692	25.437	 H	1	SAM1	0.000	
37	  H2	72.362	-1.642	24.996	 H	1	SAM1	0.000	
38	  H2	73.833	0.563	17.905	 H	1	SAM1	0.000	
39	  H3	70.840	-1.464	24.387	 H	1	SAM1	0.000	
40	  H8	69.134	0.385	22.400	 H	1	SAM1	0.000	
41	 H1'	72.766	0.439	22.636	 H	1	SAM1	0.000	
42	 H2'	72.465	2.910	21.470	 H	1	SAM1	0.000	
43	 H2'	73.680	3.541	23.340	 H	1	SAM1	0.000	
44	 H3'	70.261	3.380	22.331	 H	1	SAM1	0.000	
45	 H3'	71.681	5.049	22.612	 H	1	SAM1	0.000	
46	 H4'	71.294	2.632	25.125	 H	1	SAM1	0.000	
47	 H61	68.641	-0.621	17.683	 H	1	SAM1	0.000	
48	 H62	69.699	-0.711	16.293	 H	1	SAM1	0.000	
49	H5'1	69.069	3.570	24.775	 H	1	SAM1	0.000	
50	H5'2	68.652	2.118	23.834	 H	1	SAM1	0.000	
@<TRIPOS>BOND
1 1 2 1
2 1 36 1
3 1 37 1
4 1 39 1
5 2 3 1
6 2 5 1
7 2 28 1
8 3 4 ar
9 3 17 ar
10 5 6 1
11 5 29 1
12 5 30 1
13 6 7 1
14 6 31 1
15 6 32 1
16 7 8 1
17 7 9 1
18 8 33 1
19 8 34 1
20 8 35 1
21 9 10 1
22 9 49 1
23 9 50 1
24 10 11 1
25 10 12 1
26 10 46 1
27 11 16 1
28 12 13 1
29 12 14 1
30 12 44 1
31 13 45 1
32 14 15 1
33 14 16 1
34 14 42 1
35 15 43 1
36 16 27 1
37 16 41 1
38 18 19 ar
39 18 23 ar
40 19 20 ar
41 19 38 1
42 20 21 ar
43 21 22 ar
44 21 27 ar
45 22 23 ar
46 22 25 ar
47 23 24 1
48 24 47 1
49 24 48 1
50 25 26 ar
51 26 27 ar
52 26 40 1
@<TRIPOS>SUBSTRUCTURE
1	SAM1	1	GROUP	1 A	SAM
