# created with PyMOL 2.4.0
@<TRIPOS>MOLECULE
temp
50 52 1                 
SMALL
USER_CHARGES
@<TRIPOS>ATOM
1	   N	27.460	-1.233	62.125	N.4	1	SAM1	0.000	
2	  CA	27.865	-0.228	61.112	C.3	1	SAM1	0.000	
3	   C	27.021	-0.466	59.887	C.2	1	SAM1	0.000	
4	   O	27.357	0.124	58.843	O.co2	1	SAM1	0.000	
5	  CB	29.358	-0.499	60.823	C.3	1	SAM1	0.000	
6	  CG	30.317	0.233	61.700	C.3	1	SAM1	0.000	
7	  SD	30.341	1.932	61.576	S.3	1	SAM1	0.000	
8	  CE	31.955	2.375	61.536	C.3	1	SAM1	0.000	
9	 C5'	29.954	2.738	63.002	C.3	1	SAM1	0.000	
10	 C4'	28.460	2.721	63.385	C.3	1	SAM1	0.000	
11	 O4'	28.131	1.362	63.814	O.3	1	SAM1	0.000	
12	 C3'	28.174	3.535	64.667	C.3	1	SAM1	0.000	
13	 O3'	27.915	4.930	64.481	O.3	1	SAM1	0.000	
14	 C2'	26.953	2.837	65.182	C.3	1	SAM1	0.000	
15	 O2'	25.801	3.112	64.382	O.3	1	SAM1	0.000	
16	 C1'	27.229	1.366	64.919	C.3	1	SAM1	0.000	
17	 OXT	26.065	-1.285	59.944	O.co2	1	SAM1	0.000	
18	  N1	27.119	-0.177	69.916	N.2	1	SAM1	0.000	
19	  C2	26.143	0.391	69.149	C.2	1	SAM1	0.000	
20	  N3	26.269	0.725	67.847	N.2	1	SAM1	0.000	
21	  C4	27.478	0.513	67.278	C.2	1	SAM1	0.000	
22	  C5	28.571	-0.108	68.018	C.2	1	SAM1	0.000	
23	  C6	28.381	-0.451	69.425	C.2	1	SAM1	0.000	
24	  N6	29.406	-1.029	70.084	N.pl3	1	SAM1	0.000	
25	  N7	29.638	-0.231	67.184	N.2	1	SAM1	0.000	
26	  C8	29.227	0.330	65.998	C.2	1	SAM1	0.000	
27	  N9	27.947	0.733	66.066	N.2	1	SAM1	0.000	
28	  HA	27.729	0.804	61.436	 H	1	SAM1	0.000	
29	 HB1	29.559	-0.213	59.791	 H	1	SAM1	0.000	
30	 HB2	29.537	-1.567	60.945	 H	1	SAM1	0.000	
31	 HG1	31.318	-0.128	61.464	 H	1	SAM1	0.000	
32	 HG2	30.074	-0.017	62.733	 H	1	SAM1	0.000	
33	 HE1	32.428	1.944	60.654	 H	1	SAM1	0.000	
34	 HE2	32.455	2.008	62.432	 H	1	SAM1	0.000	
35	 HE3	32.033	3.461	61.496	 H	1	SAM1	0.000	
36	  H1	27.613	-2.161	61.758	 H	1	SAM1	0.000	
37	  H2	26.481	-1.115	62.344	 H	1	SAM1	0.000	
38	  H2	25.193	0.589	69.622	 H	1	SAM1	0.000	
39	  H3	28.010	-1.107	62.963	 H	1	SAM1	0.000	
40	  H8	29.853	0.433	65.124	 H	1	SAM1	0.000	
41	 H1'	26.298	0.825	64.753	 H	1	SAM1	0.000	
42	 H2'	26.770	3.134	66.215	 H	1	SAM1	0.000	
43	 H2'	25.633	4.056	64.430	 H	1	SAM1	0.000	
44	 H3'	29.042	3.554	65.326	 H	1	SAM1	0.000	
45	 H3'	27.738	5.310	65.345	 H	1	SAM1	0.000	
46	 H4'	27.911	3.106	62.526	 H	1	SAM1	0.000	
47	 H61	30.275	-1.213	69.604	 H	1	SAM1	0.000	
48	 H62	29.304	-1.278	71.058	 H	1	SAM1	0.000	
49	H5'1	30.262	3.778	62.895	 H	1	SAM1	0.000	
50	H5'2	30.515	2.274	63.814	 H	1	SAM1	0.000	
@<TRIPOS>BOND
1 1 2 1
2 1 36 1
3 1 37 1
4 1 39 1
5 2 3 1
6 2 5 1
7 2 28 1
8 3 4 ar
9 3 17 ar
10 5 6 1
11 5 29 1
12 5 30 1
13 6 7 1
14 6 31 1
15 6 32 1
16 7 8 1
17 7 9 1
18 8 33 1
19 8 34 1
20 8 35 1
21 9 10 1
22 9 49 1
23 9 50 1
24 10 11 1
25 10 12 1
26 10 46 1
27 11 16 1
28 12 13 1
29 12 14 1
30 12 44 1
31 13 45 1
32 14 15 1
33 14 16 1
34 14 42 1
35 15 43 1
36 16 27 1
37 16 41 1
38 18 19 ar
39 18 23 ar
40 19 20 ar
41 19 38 1
42 20 21 ar
43 21 22 ar
44 21 27 ar
45 22 23 ar
46 22 25 ar
47 23 24 1
48 24 47 1
49 24 48 1
50 25 26 ar
51 26 27 ar
52 26 40 1
@<TRIPOS>SUBSTRUCTURE
1	SAM1	1	GROUP	1 B	SAM
