# created with PyMOL 2.5.0
@<TRIPOS>MOLECULE
2DPM
27 29 1                 
SMALL
USER_CHARGES
@<TRIPOS>ATOM
1	   N	19.769	29.660	59.193	N.3	1	SAM300	0.000	
2	  CA	19.192	28.703	58.299	C.3	1	SAM300	0.000	
3	   C	19.214	27.480	59.222	C.3	1	SAM300	0.000	
4	   O	19.020	27.598	60.503	O.3	1	SAM300	0.000	
5	  CB	20.169	28.529	57.157	C.3	1	SAM300	0.000	
6	  CG	19.960	29.458	55.960	C.3	1	SAM300	0.000	
7	  SD	21.201	29.144	54.674	S.3	1	SAM300	0.000	
8	  CE	22.782	29.991	54.829	C.3	1	SAM300	0.000	
9	 C5'	20.960	30.479	53.482	C.3	1	SAM300	0.000	
10	 C4'	19.666	30.408	52.793	C.3	1	SAM300	0.000	
11	 O4'	19.603	31.526	51.919	O.3	1	SAM300	0.000	
12	 C3'	19.457	29.143	51.921	C.3	1	SAM300	0.000	
13	 O3'	18.285	28.438	52.415	O.3	1	SAM300	0.000	
14	 C2'	19.223	29.800	50.503	C.3	1	SAM300	0.000	
15	 O2'	18.246	29.046	49.700	O.3	1	SAM300	0.000	
16	 C1'	18.663	31.208	50.867	C.3	1	SAM300	0.000	
17	 OXT	18.729	26.371	58.747	O.3	1	SAM300	0.000	
18	  N1	16.993	35.835	48.860	N.2	1	SAM300	0.000	
19	  C2	16.506	35.097	49.884	C.2	1	SAM300	0.000	
20	  N3	16.942	33.909	50.378	N.2	1	SAM300	0.000	
21	  C4	18.059	33.475	49.647	C.2	1	SAM300	0.000	
22	  C5	18.655	34.153	48.563	C.2	1	SAM300	0.000	
23	  C6	18.069	35.428	48.149	C.2	1	SAM300	0.000	
24	  N6	18.554	36.185	47.116	N.pl3	1	SAM300	0.000	
25	  N7	19.777	33.398	48.075	N.2	1	SAM300	0.000	
26	  C8	19.828	32.337	48.852	C.2	1	SAM300	0.000	
27	  N9	18.836	32.285	49.832	N.2	1	SAM300	0.000	
@<TRIPOS>BOND
1 1 2 1
2 2 3 1
3 2 5 1
4 3 4 1
5 3 17 1
6 5 6 1
7 6 7 1
8 7 8 1
9 7 9 1
10 9 10 1
11 10 11 1
12 10 12 1
13 11 16 1
14 12 13 1
15 12 14 1
16 14 15 1
17 14 16 1
18 16 27 1
19 18 19 ar
20 18 23 ar
21 19 20 ar
22 20 21 ar
23 21 22 ar
24 21 27 ar
25 22 23 ar
26 22 25 ar
27 23 24 1
28 25 26 ar
29 26 27 ar
@<TRIPOS>SUBSTRUCTURE
1	SAM300	1	GROUP	1 A	SAM
