# created with PyMOL 2.4.0
@<TRIPOS>MOLECULE
temp
50 52 1                 
SMALL
USER_CHARGES
@<TRIPOS>ATOM
1	   N	19.769	29.660	59.193	N.4	1	SAM1	0.000	
2	  CA	19.192	28.703	58.299	C.3	1	SAM1	0.000	
3	   C	19.214	27.480	59.222	C.2	1	SAM1	0.000	
4	   O	19.020	27.598	60.503	O.co2	1	SAM1	0.000	
5	  CB	20.169	28.529	57.157	C.3	1	SAM1	0.000	
6	  CG	19.960	29.458	55.960	C.3	1	SAM1	0.000	
7	  SD	21.201	29.144	54.674	S.3	1	SAM1	0.000	
8	  CE	22.782	29.991	54.829	C.3	1	SAM1	0.000	
9	 C5'	20.960	30.479	53.482	C.3	1	SAM1	0.000	
10	 C4'	19.666	30.408	52.793	C.3	1	SAM1	0.000	
11	 O4'	19.603	31.526	51.919	O.3	1	SAM1	0.000	
12	 C3'	19.457	29.143	51.921	C.3	1	SAM1	0.000	
13	 O3'	18.285	28.438	52.415	O.3	1	SAM1	0.000	
14	 C2'	19.223	29.800	50.503	C.3	1	SAM1	0.000	
15	 O2'	18.246	29.046	49.700	O.3	1	SAM1	0.000	
16	 C1'	18.663	31.208	50.867	C.3	1	SAM1	0.000	
17	 OXT	18.729	26.371	58.747	O.co2	1	SAM1	0.000	
18	  N1	16.993	35.835	48.860	N.2	1	SAM1	0.000	
19	  C2	16.506	35.097	49.884	C.2	1	SAM1	0.000	
20	  N3	16.942	33.909	50.378	N.2	1	SAM1	0.000	
21	  C4	18.059	33.475	49.647	C.2	1	SAM1	0.000	
22	  C5	18.655	34.153	48.563	C.2	1	SAM1	0.000	
23	  C6	18.069	35.428	48.149	C.2	1	SAM1	0.000	
24	  N6	18.554	36.185	47.116	N.pl3	1	SAM1	0.000	
25	  N7	19.777	33.398	48.075	N.2	1	SAM1	0.000	
26	  C8	19.828	32.337	48.852	C.2	1	SAM1	0.000	
27	  N9	18.836	32.285	49.832	N.2	1	SAM1	0.000	
28	  HA	18.217	28.927	57.866	 H	1	SAM1	0.000	
29	 HB1	20.090	27.502	56.802	 H	1	SAM1	0.000	
30	 HB2	21.173	28.703	57.545	 H	1	SAM1	0.000	
31	 HG1	20.044	30.493	56.292	 H	1	SAM1	0.000	
32	 HG2	18.966	29.289	55.546	 H	1	SAM1	0.000	
33	 HE1	23.400	29.476	55.565	 H	1	SAM1	0.000	
34	 HE2	22.614	31.018	55.152	 H	1	SAM1	0.000	
35	 HE3	23.290	29.992	53.865	 H	1	SAM1	0.000	
36	  H1	20.665	29.323	59.514	 H	1	SAM1	0.000	
37	  H2	19.156	29.794	59.985	 H	1	SAM1	0.000	
38	  H2	15.643	35.514	50.382	 H	1	SAM1	0.000	
39	  H3	19.893	30.539	58.711	 H	1	SAM1	0.000	
40	  H8	20.578	31.568	48.740	 H	1	SAM1	0.000	
41	 H1'	17.589	31.177	51.053	 H	1	SAM1	0.000	
42	 H2'	20.129	29.825	49.897	 H	1	SAM1	0.000	
43	 H2'	18.609	28.171	49.547	 H	1	SAM1	0.000	
44	 H3'	20.263	28.409	51.916	 H	1	SAM1	0.000	
45	 H3'	18.109	27.711	51.813	 H	1	SAM1	0.000	
46	 H4'	18.899	30.387	53.567	 H	1	SAM1	0.000	
47	 H61	19.359	35.870	46.594	 H	1	SAM1	0.000	
48	 H62	18.107	37.058	46.876	 H	1	SAM1	0.000	
49	H5'1	21.753	30.426	52.736	 H	1	SAM1	0.000	
50	H5'2	21.020	31.431	54.010	 H	1	SAM1	0.000	
@<TRIPOS>BOND
1 1 2 1
2 1 36 1
3 1 37 1
4 1 39 1
5 2 3 1
6 2 5 1
7 2 28 1
8 3 4 1
9 3 17 2
10 5 6 1
11 5 29 1
12 5 30 1
13 6 7 1
14 6 31 1
15 6 32 1
16 7 8 1
17 7 9 1
18 8 33 1
19 8 34 1
20 8 35 1
21 9 10 1
22 9 49 1
23 9 50 1
24 10 11 1
25 10 12 1
26 10 46 1
27 11 16 1
28 12 13 1
29 12 14 1
30 12 44 1
31 13 45 1
32 14 15 1
33 14 16 1
34 14 42 1
35 15 43 1
36 16 27 1
37 16 41 1
38 18 19 ar
39 18 23 ar
40 19 20 ar
41 19 38 1
42 20 21 ar
43 21 22 ar
44 21 27 ar
45 22 23 ar
46 22 25 ar
47 23 24 1
48 24 47 1
49 24 48 1
50 25 26 ar
51 26 27 ar
52 26 40 1
@<TRIPOS>SUBSTRUCTURE
1	SAM1	1	GROUP	1 A	SAM
