@<TRIPOS>MOLECULE
2DPM.A
54 56 1 0 0 
SMALL
USER_CHARGES


@<TRIPOS>ATOM
  1 N       19.7690    29.6600    59.1930 N.4   1 SAM  -0.8530 
  2 H3      19.8929    30.5389    58.7111 H     1 SAM   0.4500 
  3 H1      20.6652    29.3229    59.5143 H     1 SAM   0.4500 
  4 H2      19.1561    29.7936    59.9846 H     1 SAM   0.4500 
  5 CA      19.1920    28.7030    58.2990 C.3   1 SAM   0.4230 
  6 HA      18.2171    28.9271    57.8661 H     1 SAM   0.0800 
  7 C       19.2140    27.4800    59.2220 C.3   1 SAM   0.4800 
  8 H       20.3010    27.4072    59.1875 H     1 SAM   0.0800 
  9 O       19.0200    27.5980    60.5030 O.3   1 SAM  -0.6800 
 10 H       19.3775    26.8129    60.9243 H     1 SAM   0.4000 
 11 CB      20.1690    28.5290    57.1570 C.3   1 SAM  -0.1600 
 12 HB1     20.0898    27.5016    56.8017 H     1 SAM   0.0800 
 13 HB2     21.1726    28.7029    57.5451 H     1 SAM   0.0800 
 14 CG      19.9600    29.4580    55.9600 C.3   1 SAM  -0.1525 
 15 HG1     20.0439    30.4928    56.2921 H     1 SAM   0.0800 
 16 HG2     18.9660    29.2888    55.5459 H     1 SAM   0.0800 
 17 SD      21.2010    29.1440    54.6740 S.3   1 SAM   0.9775 
 18 CE      22.7820    29.9910    54.8290 C.3   1 SAM  -0.2325 
 19 HE1     23.3996    29.4758    55.5647 H     1 SAM   0.0800 
 20 HE2     22.6137    31.0185    55.1515 H     1 SAM   0.0800 
 21 HE3     23.2900    29.9915    53.8646 H     1 SAM   0.0800 
 22 C5'     20.9600    30.4790    53.4820 C.3   1 SAM  -0.1525 
 23 H5'1    21.7535    30.4261    52.7365 H     1 SAM   0.0800 
 24 H5'2    21.0203    31.4307    54.0099 H     1 SAM   0.0800 
 25 C4'     19.6660    30.4080    52.7930 C.3   1 SAM   0.2000 
 26 H4'     18.8985    30.3866    53.5667 H     1 SAM   0.0800 
 27 O4'     19.6030    31.5260    51.9190 O.3   1 SAM  -0.5600 
 28 C3'     19.4570    29.1430    51.9210 C.3   1 SAM   0.2000 
 29 H3'     20.2625    28.4087    51.9163 H     1 SAM   0.0800 
 30 O3'     18.2850    28.4380    52.4150 O.3   1 SAM  -0.6800 
 31 H3'     18.1086    27.7110    51.8134 H     1 SAM   0.4000 
 32 C2'     19.2230    29.8000    50.5030 C.3   1 SAM   0.2000 
 33 H2'     20.1286    29.8252    49.8969 H     1 SAM   0.0800 
 34 O2'     18.2460    29.0460    49.7000 O.3   1 SAM  -0.6800 
 35 H2'     17.4295    29.0015    50.2029 H     1 SAM   0.4000 
 36 C1'     18.6630    31.2080    50.8670 C.3   1 SAM   0.5691 
 37 H1'     17.5894    31.1768    51.0527 H     1 SAM   0.0800 
 38 OXT     18.7290    26.3710    58.7470 O.3   1 SAM  -0.6800 
 39 HXT     17.7717    26.4361    58.7778 H     1 SAM   0.4000 
 40 N1      16.9930    35.8350    48.8600 N.2   1 SAM  -0.6610 
 41 C2      16.5060    35.0970    49.8840 C.2   1 SAM   0.6010 
 42 H2      15.6432    35.5139    50.3823 H     1 SAM   0.0600 
 43 N3      16.9420    33.9090    50.3780 N.2   1 SAM  -0.6610 
 44 C4      18.0590    33.4750    49.6470 C.2   1 SAM   0.5000 
 45 C5      18.6550    34.1530    48.5630 C.2   1 SAM   0.4500 
 46 C6      18.0690    35.4280    48.1490 C.2   1 SAM   0.6110 
 47 N6      18.5540    36.1850    47.1160 N.2   1 SAM  -0.2000 
 48 H62     18.1065    37.0581    46.8762 H     1 SAM   0.4000 
 49 H61     19.3592    35.8702    46.5939 H     1 SAM   0.4000 
 50 N7      19.7770    33.3980    48.0750 N.2   1 SAM  -0.6960 
 51 C8      19.8280    32.3370    48.8520 C.3   1 SAM   0.4551 
 52 H81     20.7978    32.3265    49.3494 H     1 SAM   0.0800 
 53 H82     19.7321    31.4512    48.2241 H     1 SAM   0.0800 
 54 N9      18.8360    32.2850    49.8320 N.pl3 1 SAM  -0.7882 
@<TRIPOS>BOND
  1   1   2  1   
  2   1   3  1   
  3   1   4  1   
  4   1   5  1   
  5   5   6  1   
  6   5   7  1   
  7   5  11  1   
  8   7   8  1   
  9   7   9  1   
 10   7  38  1   
 11   9  10  1   
 12  11  12  1   
 13  11  13  1   
 14  11  14  1   
 15  14  15  1   
 16  14  16  1   
 17  14  17  1   
 18  17  18  1   
 19  17  22  1   
 20  18  19  1   
 21  18  20  1   
 22  18  21  1   
 23  22  23  1   
 24  22  24  1   
 25  22  25  1   
 26  25  26  1   
 27  25  27  1   
 28  25  28  1   
 29  27  36  1   
 30  28  29  1   
 31  28  30  1   
 32  28  32  1   
 33  30  31  1   
 34  32  33  1   
 35  32  34  1   
 36  32  36  1   
 37  34  35  1   
 38  36  37  1   
 39  36  54  1   
 40  38  39  1   
 41  40  41  2   
 42  40  46  1   
 43  41  42  1   
 44  41  43  1   
 45  43  44  2   
 46  44  45  1   
 47  44  54  1   
 48  45  46  1   
 49  45  50  2   
 50  46  47  2   
 51  47  48  1   
 52  47  49  1   
 53  50  51  1   
 54  51  52  1   
 55  51  53  1   
 56  51  54  1   
@<TRIPOS>SUBSTRUCTURE
  1 SAM  25 GROUP 4 A **** 0

# MOE 2022.02 (io_trps.svl 2020.11)
