# created with PyMOL 2.5.0
@<TRIPOS>MOLECULE
5EHI
31 33 1                 
SMALL
USER_CHARGES
@<TRIPOS>ATOM
1	   N	54.566	43.282	10.860	N.pl3	1	5O34002	0.000	
2	   C	53.403	42.564	10.439	C.2	1	5O34002	0.000	
3	   O	54.057	41.516	6.552	O.2	1	5O34002	0.000	
4	  CL	49.518	42.284	11.397	Cl	1	5O34002	0.000	
5	  C1	52.174	42.800	11.056	C.2	1	5O34002	0.000	
6	  N1	54.749	41.469	8.754	N.pl3	1	5O34002	0.000	
7	  O1	54.569	41.488	2.292	O.2	1	5O34002	0.000	
8	  C2	51.067	42.103	10.595	C.2	1	5O34002	0.000	
9	  N2	56.325	41.334	7.090	N.pl3	1	5O34002	0.000	
10	  O2	56.223	43.069	1.403	O.2	1	5O34002	0.000	
11	  C3	51.120	41.223	9.545	C.2	1	5O34002	0.000	
12	  N3	56.534	40.637	0.924	N.pl3	1	5O34002	0.000	
13	  O3	56.098	34.591	3.313	O.co2	1	5O34002	0.000	
14	  C4	52.346	40.976	8.910	C.2	1	5O34002	0.000	
15	  O4	56.630	34.123	1.226	O.co2	1	5O34002	0.000	
16	  C5	53.478	41.644	9.361	C.2	1	5O34002	0.000	
17	  C6	54.964	41.472	7.399	C.2	1	5O34002	0.000	
18	  C7	56.957	41.417	5.856	C.2	1	5O34002	0.000	
19	  C8	58.337	41.694	5.834	C.2	1	5O34002	0.000	
20	  C9	58.984	41.990	4.629	C.2	1	5O34002	0.000	
21	 C10	58.258	42.038	3.409	C.2	1	5O34002	0.000	
22	 C11	56.858	41.754	3.413	C.2	1	5O34002	0.000	
23	 C12	56.480	39.231	1.141	C.2	1	5O34002	0.000	
24	 C13	56.943	38.278	0.198	C.2	1	5O34002	0.000	
25	 C14	56.878	36.903	0.523	C.2	1	5O34002	0.000	
26	 C15	56.397	36.454	1.781	C.2	1	5O34002	0.000	
27	 C16	56.328	35.029	2.186	C.2	1	5O34002	0.000	
28	 C17	55.934	37.402	2.708	C.2	1	5O34002	0.000	
29	 C18	55.968	38.750	2.381	C.2	1	5O34002	0.000	
30	 C19	56.230	41.424	4.656	C.2	1	5O34002	0.000	
31	   S	55.951	41.787	1.980	S.o2	1	5O34002	0.000	
@<TRIPOS>BOND
1 1 2 1
2 2 5 ar
3 2 16 ar
4 3 17 2
5 4 8 1
6 5 8 ar
7 6 16 1
8 6 17 1
9 7 31 2
10 8 11 ar
11 9 17 1
12 9 18 1
13 10 31 2
14 11 14 ar
15 12 23 1
16 12 31 1
17 13 27 ar
18 14 16 ar
19 15 27 ar
20 18 19 ar
21 18 30 ar
22 19 20 ar
23 20 21 ar
24 21 22 ar
25 22 30 ar
26 22 31 1
27 23 24 ar
28 23 29 ar
29 24 25 ar
30 25 26 ar
31 26 27 1
32 26 28 ar
33 28 29 ar
@<TRIPOS>SUBSTRUCTURE
1	5O34002	1	GROUP	1 A	5O3
