@<TRIPOS>MOLECULE
5EHI.A
47 49 1 0 0 
SMALL
USER_CHARGES


@<TRIPOS>ATOM
  1 N       54.5660    43.2820    10.8600 N.pl3 1 Q5O  -0.9000 
  2 H1      55.4476    43.1358    10.3894 H     1 Q5O   0.4000 
  3 H2      54.5057    43.9353    11.6279 H     1 Q5O   0.4000 
  4 C       53.4030    42.5640    10.4390 C.ar  1 Q5O   0.1000 
  5 O       54.0570    41.5160     6.5520 O.2   1 Q5O  -0.5700 
  6 CL      49.5180    42.2840    11.3970 Cl    1 Q5O  -0.1770 
  7 C1      52.1740    42.8000    11.0560 C.ar  1 Q5O  -0.1500 
  8 H1      52.0872    43.5053    11.8693 H     1 Q5O   0.1500 
  9 N1      54.7490    41.4690     8.7540 N.am  1 Q5O  -0.5470 
 10 H1      55.5466    41.3335     9.3586 H     1 Q5O   0.3700 
 11 O1      54.5690    41.4880     2.2920 O.co2 1 Q5O  -0.6500 
 12 C2      51.0670    42.1030    10.5950 C.ar  1 Q5O   0.1770 
 13 N2      56.3250    41.3340     7.0900 N.am  1 Q5O  -0.5470 
 14 H2      56.9314    41.1479     7.8760 H     1 Q5O   0.3700 
 15 O2      56.2230    43.0690     1.4030 O.co2 1 Q5O  -0.6500 
 16 C3      51.1200    41.2230     9.5450 C.ar  1 Q5O  -0.1500 
 17 H3      50.2235    40.7232     9.2090 H     1 Q5O   0.1500 
 18 N3      56.5340    40.6370     0.9240 N.2   1 Q5O  -0.5381 
 19 O3      56.0980    34.5910     3.3130 O.2   1 Q5O  -0.5700 
 20 C4      52.3460    40.9760     8.9100 C.ar  1 Q5O  -0.1500 
 21 H4      52.4090    40.2801     8.0865 H     1 Q5O   0.1500 
 22 O4      56.6300    34.1230     1.2260 O.3   1 Q5O  -0.6500 
 23 H4      56.6367    33.2087     1.5187 H     1 Q5O   0.5000 
 24 C5      53.4780    41.6440     9.3610 C.ar  1 Q5O   0.1170 
 25 C6      54.9640    41.4720     7.3990 C.2   1 Q5O   0.6900 
 26 C7      56.9570    41.4170     5.8560 C.ar  1 Q5O   0.1170 
 27 C8      58.3370    41.6940     5.8340 C.ar  1 Q5O  -0.1500 
 28 H8      58.9011    41.6779     6.7548 H     1 Q5O   0.1500 
 29 C9      58.9840    41.9900     4.6290 C.ar  1 Q5O  -0.1500 
 30 H9      60.0464    42.1840     4.6266 H     1 Q5O   0.1500 
 31 C10     58.2580    42.0380     3.4090 C.ar  1 Q5O  -0.1500 
 32 H10     58.7603    42.2872     2.4860 H     1 Q5O   0.1500 
 33 C11     56.8580    41.7540     3.4130 C.ar  1 Q5O  -0.0090 
 34 C12     56.4800    39.2310     1.1410 C.ar  1 Q5O  -0.1270 
 35 C13     56.9430    38.2780     0.1980 C.ar  1 Q5O  -0.1500 
 36 H13     57.3394    38.5977    -0.7544 H     1 Q5O   0.1500 
 37 C14     56.8780    36.9030     0.5230 C.ar  1 Q5O  -0.1500 
 38 H14     57.2031    36.1750    -0.2055 H     1 Q5O   0.1500 
 39 C15     56.3970    36.4540     1.7810 C.ar  1 Q5O   0.0862 
 40 C16     56.3280    35.0290     2.1860 C.2   1 Q5O   0.6338 
 41 C17     55.9340    37.4020     2.7080 C.ar  1 Q5O  -0.1500 
 42 H17     55.5545    37.0843     3.6679 H     1 Q5O   0.1500 
 43 C18     55.9680    38.7500     2.3810 C.ar  1 Q5O  -0.1500 
 44 H18     55.5904    39.4653     3.0967 H     1 Q5O   0.1500 
 45 C19     56.2300    41.4240     4.6560 C.ar  1 Q5O  -0.1500 
 46 H19     55.1789    41.1762     4.6705 H     1 Q5O   0.1500 
 47 S       55.9510    41.7870     1.9800 S.o2  1 Q5O   0.9741 
@<TRIPOS>BOND
  1   1   2  1   
  2   1   3  1   
  3   1   4  1   
  4   4   7  ar  
  5   4  24  ar  
  6   5  25  2   
  7   6  12  1   
  8   7   8  1   
  9   7  12  ar  
 10   9  10  1   
 11   9  24  1   
 12   9  25  am  
 13  11  47  ar  
 14  12  16  ar  
 15  13  14  1   
 16  13  25  am  
 17  13  26  1   
 18  15  47  ar  
 19  16  17  1   
 20  16  20  ar  
 21  18  34  1   
 22  18  47  2   
 23  19  40  2   
 24  20  21  1   
 25  20  24  ar  
 26  22  23  1   
 27  22  40  1   
 28  26  27  ar  
 29  26  45  ar  
 30  27  28  1   
 31  27  29  ar  
 32  29  30  1   
 33  29  31  ar  
 34  31  32  1   
 35  31  33  ar  
 36  33  45  ar  
 37  33  47  1   
 38  34  35  ar  
 39  34  43  ar  
 40  35  36  1   
 41  35  37  ar  
 42  37  38  1   
 43  37  39  ar  
 44  39  40  1   
 45  39  41  ar  
 46  41  42  1   
 47  41  43  ar  
 48  43  44  1   
 49  45  46  1   
@<TRIPOS>SUBSTRUCTURE
  1 Q5O  45 GROUP 4 A **** 0

# MOE 2022.02 (io_trps.svl 2020.11)
