@<TRIPOS>MOLECULE
5EHI.A
51 53 1 0 0 
SMALL
USER_CHARGES


@<TRIPOS>ATOM
  1 N       38.1200    43.7250    -7.2480 N.4   1 SAM  -0.8530 
  2 H1      38.9258    44.0415    -6.7278 H     1 SAM   0.4500 
  3 H2      38.4171    43.3690    -8.1453 H     1 SAM   0.4500 
  4 H3      37.6533    42.9923    -6.7328 H     1 SAM   0.4500 
  5 CA      37.1800    44.8660    -7.4520 C.3   1 SAM   0.3170 
  6 HA      36.3146    44.5144    -8.0138 H     1 SAM   0.0800 
  7 C       37.8860    45.9760    -8.2350 C.2   1 SAM   0.9060 
  8 O       39.1230    45.9480    -8.2730 O.co2 1 SAM  -0.9000 
  9 CB      36.7050    45.4100    -6.1070 C.3   1 SAM  -0.1600 
 10 HB1     36.1378    46.3241    -6.2826 H     1 SAM   0.0800 
 11 HB2     37.5786    45.6363    -5.4956 H     1 SAM   0.0800 
 12 CG      35.8190    44.4260    -5.3450 C.3   1 SAM  -0.1525 
 13 HG1     35.8772    44.6171    -4.2735 H     1 SAM   0.0800 
 14 HG2     36.1304    43.4015    -5.5488 H     1 SAM   0.0800 
 15 SD      34.1960    44.6880    -5.9170 S.3   1 SAM   0.9775 
 16 CE      33.6640    46.1280    -5.0980 C.3   1 SAM  -0.2325 
 17 HE1     34.1225    47.0008    -5.5629 H     1 SAM   0.0800 
 18 HE2     33.9571    46.0789    -4.0493 H     1 SAM   0.0800 
 19 HE3     32.5791    46.2064    -5.1687 H     1 SAM   0.0800 
 20 C5'     33.3290    43.3780    -4.9990 C.3   1 SAM  -0.1525 
 21 H5'1    33.1207    43.6995    -3.9785 H     1 SAM   0.0800 
 22 H5'2    33.9259    42.4662    -4.9780 H     1 SAM   0.0800 
 23 C4'     32.0420    43.1520    -5.7570 C.3   1 SAM   0.2000 
 24 H4'     32.3930    43.1477    -6.7889 H     1 SAM   0.0800 
 25 O4'     31.3860    41.9170    -5.4240 O.3   1 SAM  -0.5600 
 26 C3'     30.9850    44.2460    -5.5590 C.3   1 SAM   0.2000 
 27 H3'     31.1686    44.8797    -4.6914 H     1 SAM   0.0800 
 28 O3'     30.9700    45.1080    -6.6910 O.3   1 SAM  -0.6800 
 29 H3'     30.2653    45.7467    -6.5602 H     1 SAM   0.4000 
 30 C2'     29.6730    43.4670    -5.4350 C.3   1 SAM   0.2000 
 31 H2'     29.2623    43.5146    -4.4265 H     1 SAM   0.0800 
 32 O2'     28.6490    43.9630    -6.2860 O.3   1 SAM  -0.6800 
 33 H2'     28.9806    43.9342    -7.1865 H     1 SAM   0.4000 
 34 C1'     30.0860    42.0970    -5.9270 C.3   1 SAM   0.5691 
 35 H1'     30.0085    42.0727    -7.0140 H     1 SAM   0.0800 
 36 OXT     37.1660    46.8590    -8.7380 O.co2 1 SAM  -0.9000 
 37 N1      27.9160    37.6140    -7.1810 N.2   1 SAM  -0.6610 
 38 C2      28.7050    38.4480    -7.8670 C.2   1 SAM   0.6010 
 39 H2      28.9455    38.1393    -8.8736 H     1 SAM   0.0600 
 40 N3      29.2360    39.6090    -7.4790 N.2   1 SAM  -0.6610 
 41 C4      28.8940    39.8910    -6.2150 C.2   1 SAM   0.5000 
 42 C5      28.0900    39.1320    -5.3850 C.2   1 SAM   0.4500 
 43 C6      27.5660    37.9390    -5.9170 C.2   1 SAM   0.6110 
 44 N6      26.7140    37.1430    -5.2570 N.2   1 SAM  -0.2000 
 45 H62     26.3719    36.2982    -5.6923 H     1 SAM   0.4000 
 46 H61     26.4138    37.3877    -4.3242 H     1 SAM   0.4000 
 47 N7      27.9360    39.7500    -4.1540 N.2   1 SAM  -0.6960 
 48 C8      28.6300    40.8550    -4.2710 C.3   1 SAM   0.4551 
 49 H81     29.3988    40.8610    -3.4984 H     1 SAM   0.0800 
 50 H82     27.9579    41.7000    -4.1213 H     1 SAM   0.0800 
 51 N9      29.2410    41.0000    -5.4890 N.pl3 1 SAM  -0.7882 
@<TRIPOS>BOND
  1   1   2  1   
  2   1   3  1   
  3   1   4  1   
  4   1   5  1   
  5   5   6  1   
  6   5   7  1   
  7   5   9  1   
  8   7   8  ar  
  9   7  36  ar  
 10   9  10  1   
 11   9  11  1   
 12   9  12  1   
 13  12  13  1   
 14  12  14  1   
 15  12  15  1   
 16  15  16  1   
 17  15  20  1   
 18  16  17  1   
 19  16  18  1   
 20  16  19  1   
 21  20  21  1   
 22  20  22  1   
 23  20  23  1   
 24  23  24  1   
 25  23  25  1   
 26  23  26  1   
 27  25  34  1   
 28  26  27  1   
 29  26  28  1   
 30  26  30  1   
 31  28  29  1   
 32  30  31  1   
 33  30  32  1   
 34  30  34  1   
 35  32  33  1   
 36  34  35  1   
 37  34  51  1   
 38  37  38  2   
 39  37  43  1   
 40  38  39  1   
 41  38  40  1   
 42  40  41  2   
 43  41  42  1   
 44  41  51  1   
 45  42  43  1   
 46  42  47  2   
 47  43  44  2   
 48  44  45  1   
 49  44  46  1   
 50  47  48  1   
 51  48  49  1   
 52  48  50  1   
 53  48  51  1   
@<TRIPOS>SUBSTRUCTURE
  1 SAM  23 GROUP 4 A **** 0

# MOE 2022.02 (io_trps.svl 2020.11)
