# created with PyMOL 2.4.0
@<TRIPOS>MOLECULE
temp
50 52 1                 
SMALL
USER_CHARGES
@<TRIPOS>ATOM
1	   N	38.120	43.725	-7.248	N.4	1	SAM1	0.000	
2	  CA	37.180	44.866	-7.452	C.3	1	SAM1	0.000	
3	   C	37.886	45.976	-8.235	C.2	1	SAM1	0.000	
4	   O	39.123	45.948	-8.273	O.co2	1	SAM1	0.000	
5	  CB	36.705	45.410	-6.107	C.3	1	SAM1	0.000	
6	  CG	35.819	44.426	-5.345	C.3	1	SAM1	0.000	
7	  SD	34.196	44.688	-5.917	S.3	1	SAM1	0.000	
8	  CE	33.664	46.128	-5.098	C.3	1	SAM1	0.000	
9	 C5'	33.329	43.378	-4.999	C.3	1	SAM1	0.000	
10	 C4'	32.042	43.152	-5.757	C.3	1	SAM1	0.000	
11	 O4'	31.386	41.917	-5.424	O.3	1	SAM1	0.000	
12	 C3'	30.985	44.246	-5.559	C.3	1	SAM1	0.000	
13	 O3'	30.970	45.108	-6.691	O.3	1	SAM1	0.000	
14	 C2'	29.673	43.467	-5.435	C.3	1	SAM1	0.000	
15	 O2'	28.649	43.963	-6.286	O.3	1	SAM1	0.000	
16	 C1'	30.086	42.097	-5.927	C.3	1	SAM1	0.000	
17	 OXT	37.166	46.859	-8.738	O.co2	1	SAM1	0.000	
18	  N1	27.916	37.614	-7.181	N.2	1	SAM1	0.000	
19	  C2	28.705	38.448	-7.867	C.2	1	SAM1	0.000	
20	  N3	29.236	39.609	-7.479	N.2	1	SAM1	0.000	
21	  C4	28.894	39.891	-6.215	C.2	1	SAM1	0.000	
22	  C5	28.090	39.132	-5.385	C.2	1	SAM1	0.000	
23	  C6	27.566	37.939	-5.917	C.2	1	SAM1	0.000	
24	  N6	26.714	37.143	-5.257	N.pl3	1	SAM1	0.000	
25	  N7	27.936	39.750	-4.154	N.2	1	SAM1	0.000	
26	  C8	28.630	40.855	-4.271	C.2	1	SAM1	0.000	
27	  N9	29.241	41.000	-5.489	N.2	1	SAM1	0.000	
28	  HA	36.315	44.514	-8.014	 H	1	SAM1	0.000	
29	 HB1	36.138	46.324	-6.283	 H	1	SAM1	0.000	
30	 HB2	37.579	45.636	-5.496	 H	1	SAM1	0.000	
31	 HG1	35.877	44.617	-4.273	 H	1	SAM1	0.000	
32	 HG2	36.130	43.402	-5.549	 H	1	SAM1	0.000	
33	 HE1	34.123	47.001	-5.563	 H	1	SAM1	0.000	
34	 HE2	33.957	46.079	-4.049	 H	1	SAM1	0.000	
35	 HE3	32.579	46.206	-5.169	 H	1	SAM1	0.000	
36	  H1	38.926	44.042	-6.728	 H	1	SAM1	0.000	
37	  H2	38.417	43.369	-8.145	 H	1	SAM1	0.000	
38	  H2	28.945	38.139	-8.874	 H	1	SAM1	0.000	
39	  H3	37.653	42.992	-6.733	 H	1	SAM1	0.000	
40	  H8	28.713	41.585	-3.480	 H	1	SAM1	0.000	
41	 H1'	30.008	42.073	-7.014	 H	1	SAM1	0.000	
42	 H2'	29.262	43.515	-4.426	 H	1	SAM1	0.000	
43	 H2'	28.457	44.864	-6.014	 H	1	SAM1	0.000	
44	 H3'	31.169	44.880	-4.691	 H	1	SAM1	0.000	
45	 H3'	30.265	45.747	-6.560	 H	1	SAM1	0.000	
46	 H4'	32.393	43.148	-6.789	 H	1	SAM1	0.000	
47	 H61	26.414	37.388	-4.324	 H	1	SAM1	0.000	
48	 H62	26.372	36.298	-5.692	 H	1	SAM1	0.000	
49	H5'1	33.121	43.700	-3.978	 H	1	SAM1	0.000	
50	H5'2	33.926	42.466	-4.978	 H	1	SAM1	0.000	
@<TRIPOS>BOND
1 1 2 1
2 1 36 1
3 1 37 1
4 1 39 1
5 2 3 1
6 2 5 1
7 2 28 1
8 3 4 ar
9 3 17 ar
10 5 6 1
11 5 29 1
12 5 30 1
13 6 7 1
14 6 31 1
15 6 32 1
16 7 8 1
17 7 9 1
18 8 33 1
19 8 34 1
20 8 35 1
21 9 10 1
22 9 49 1
23 9 50 1
24 10 11 1
25 10 12 1
26 10 46 1
27 11 16 1
28 12 13 1
29 12 14 1
30 12 44 1
31 13 45 1
32 14 15 1
33 14 16 1
34 14 42 1
35 15 43 1
36 16 27 1
37 16 41 1
38 18 19 ar
39 18 23 ar
40 19 20 ar
41 19 38 1
42 20 21 ar
43 21 22 ar
44 21 27 ar
45 22 23 ar
46 22 25 ar
47 23 24 1
48 24 47 1
49 24 48 1
50 25 26 ar
51 26 27 ar
52 26 40 1
@<TRIPOS>SUBSTRUCTURE
1	SAM1	1	GROUP	1 A	SAM
