# created with PyMOL 2.5.0
@<TRIPOS>MOLECULE
5EHI
27 29 1                 
SMALL
USER_CHARGES
@<TRIPOS>ATOM
1	   N	13.023	11.276	-16.745	N.3	1	SAM4000	0.000	
2	  CA	12.115	10.209	-17.250	C.3	1	SAM4000	0.000	
3	   C	10.862	10.846	-17.865	C.2	1	SAM4000	0.000	
4	   O	10.757	12.085	-17.793	O.co2	1	SAM4000	0.000	
5	  CB	11.768	9.234	-16.123	C.3	1	SAM4000	0.000	
6	  CG	12.480	7.867	-16.243	C.3	1	SAM4000	0.000	
7	  SD	12.487	7.150	-14.616	S.3	1	SAM4000	0.000	
8	  CE	11.082	6.142	-14.456	C.3	1	SAM4000	0.000	
9	 C5'	13.989	6.156	-14.433	C.3	1	SAM4000	0.000	
10	 C4'	14.290	5.206	-15.587	C.3	1	SAM4000	0.000	
11	 O4'	15.619	4.666	-15.411	O.3	1	SAM4000	0.000	
12	 C3'	13.345	4.008	-15.726	C.3	1	SAM4000	0.000	
13	 O3'	12.692	4.036	-16.990	O.3	1	SAM4000	0.000	
14	 C2'	14.263	2.793	-15.538	C.3	1	SAM4000	0.000	
15	 O2'	13.858	1.715	-16.370	O.3	1	SAM4000	0.000	
16	 C1'	15.602	3.372	-15.965	C.3	1	SAM4000	0.000	
17	 OXT	10.036	10.074	-18.413	O.co2	1	SAM4000	0.000	
18	  N1	20.349	1.846	-17.217	N.2	1	SAM4000	0.000	
19	  C2	19.420	2.528	-17.894	C.2	1	SAM4000	0.000	
20	  N3	18.183	2.864	-17.510	N.2	1	SAM4000	0.000	
21	  C4	17.939	2.458	-16.254	C.2	1	SAM4000	0.000	
22	  C5	18.803	1.766	-15.426	C.2	1	SAM4000	0.000	
23	  C6	20.066	1.430	-15.959	C.2	1	SAM4000	0.000	
24	  N6	20.961	0.670	-15.322	N.pl3	1	SAM4000	0.000	
25	  N7	18.215	1.527	-14.192	N.2	1	SAM4000	0.000	
26	  C8	17.028	2.071	-14.303	C.2	1	SAM4000	0.000	
27	  N9	16.792	2.650	-15.523	N.2	1	SAM4000	0.000	
@<TRIPOS>BOND
1 1 2 1
2 2 3 1
3 2 5 1
4 3 4 ar
5 3 17 ar
6 5 6 1
7 6 7 1
8 7 8 1
9 7 9 1
10 9 10 1
11 10 11 1
12 10 12 1
13 11 16 1
14 12 13 1
15 12 14 1
16 14 15 1
17 14 16 1
18 16 27 1
19 18 19 ar
20 18 23 ar
21 19 20 ar
22 20 21 ar
23 21 22 ar
24 21 27 ar
25 22 23 ar
26 22 25 ar
27 23 24 1
28 25 26 ar
29 26 27 ar
@<TRIPOS>SUBSTRUCTURE
1	SAM4000	1	GROUP	1 C	SAM
