# created with PyMOL 2.4.0
@<TRIPOS>MOLECULE
temp
50 52 1                 
SMALL
USER_CHARGES
@<TRIPOS>ATOM
1	   N	13.023	11.276	-16.745	N.4	1	SAM1	0.000	
2	  CA	12.115	10.209	-17.250	C.3	1	SAM1	0.000	
3	   C	10.862	10.846	-17.865	C.2	1	SAM1	0.000	
4	   O	10.757	12.085	-17.793	O.co2	1	SAM1	0.000	
5	  CB	11.768	9.234	-16.123	C.3	1	SAM1	0.000	
6	  CG	12.480	7.867	-16.243	C.3	1	SAM1	0.000	
7	  SD	12.487	7.150	-14.616	S.3	1	SAM1	0.000	
8	  CE	11.082	6.142	-14.456	C.3	1	SAM1	0.000	
9	 C5'	13.989	6.156	-14.433	C.3	1	SAM1	0.000	
10	 C4'	14.290	5.206	-15.587	C.3	1	SAM1	0.000	
11	 O4'	15.619	4.666	-15.411	O.3	1	SAM1	0.000	
12	 C3'	13.345	4.008	-15.726	C.3	1	SAM1	0.000	
13	 O3'	12.692	4.036	-16.990	O.3	1	SAM1	0.000	
14	 C2'	14.263	2.793	-15.538	C.3	1	SAM1	0.000	
15	 O2'	13.858	1.715	-16.370	O.3	1	SAM1	0.000	
16	 C1'	15.602	3.372	-15.965	C.3	1	SAM1	0.000	
17	 OXT	10.036	10.074	-18.413	O.co2	1	SAM1	0.000	
18	  N1	20.349	1.846	-17.217	N.2	1	SAM1	0.000	
19	  C2	19.420	2.528	-17.894	C.2	1	SAM1	0.000	
20	  N3	18.183	2.864	-17.510	N.2	1	SAM1	0.000	
21	  C4	17.939	2.458	-16.254	C.2	1	SAM1	0.000	
22	  C5	18.803	1.766	-15.426	C.2	1	SAM1	0.000	
23	  C6	20.066	1.430	-15.959	C.2	1	SAM1	0.000	
24	  N6	20.961	0.670	-15.322	N.pl3	1	SAM1	0.000	
25	  N7	18.215	1.527	-14.192	N.2	1	SAM1	0.000	
26	  C8	17.028	2.071	-14.303	C.2	1	SAM1	0.000	
27	  N9	16.792	2.650	-15.523	N.2	1	SAM1	0.000	
28	  HA	12.617	9.637	-18.031	 H	1	SAM1	0.000	
29	 HB1	10.691	9.064	-16.135	 H	1	SAM1	0.000	
30	 HB2	12.054	9.689	-15.174	 H	1	SAM1	0.000	
31	 HG1	13.502	8.005	-16.597	 H	1	SAM1	0.000	
32	 HG2	11.940	7.222	-16.936	 H	1	SAM1	0.000	
33	 HE1	10.184	6.750	-14.568	 H	1	SAM1	0.000	
34	 HE2	11.082	5.672	-13.473	 H	1	SAM1	0.000	
35	 HE3	11.098	5.372	-15.227	 H	1	SAM1	0.000	
36	  H1	12.554	11.803	-16.022	 H	1	SAM1	0.000	
37	  H2	13.272	11.894	-17.504	 H	1	SAM1	0.000	
38	  H2	19.706	2.851	-18.884	 H	1	SAM1	0.000	
39	  H3	13.859	10.855	-16.366	 H	1	SAM1	0.000	
40	  H8	16.301	2.064	-13.505	 H	1	SAM1	0.000	
41	 H1'	15.662	3.323	-17.052	 H	1	SAM1	0.000	
42	 H2'	14.266	2.372	-14.533	 H	1	SAM1	0.000	
43	 H2'	12.986	1.438	-16.082	 H	1	SAM1	0.000	
44	 H3'	12.532	3.998	-15.000	 H	1	SAM1	0.000	
45	 H3'	12.149	3.247	-17.053	 H	1	SAM1	0.000	
46	 H4'	14.170	5.813	-16.485	 H	1	SAM1	0.000	
47	 H61	20.749	0.301	-14.406	 H	1	SAM1	0.000	
48	 H62	21.849	0.464	-15.756	 H	1	SAM1	0.000	
49	H5'1	13.890	5.561	-13.525	 H	1	SAM1	0.000	
50	H5'2	14.833	6.838	-14.330	 H	1	SAM1	0.000	
@<TRIPOS>BOND
1 1 2 1
2 1 36 1
3 1 37 1
4 1 39 1
5 2 3 1
6 2 5 1
7 2 28 1
8 3 4 ar
9 3 17 ar
10 5 6 1
11 5 29 1
12 5 30 1
13 6 7 1
14 6 31 1
15 6 32 1
16 7 8 1
17 7 9 1
18 8 33 1
19 8 34 1
20 8 35 1
21 9 10 1
22 9 49 1
23 9 50 1
24 10 11 1
25 10 12 1
26 10 46 1
27 11 16 1
28 12 13 1
29 12 14 1
30 12 44 1
31 13 45 1
32 14 15 1
33 14 16 1
34 14 42 1
35 15 43 1
36 16 27 1
37 16 41 1
38 18 19 ar
39 18 23 ar
40 19 20 ar
41 19 38 1
42 20 21 ar
43 21 22 ar
44 21 27 ar
45 22 23 ar
46 22 25 ar
47 23 24 1
48 24 47 1
49 24 48 1
50 25 26 ar
51 26 27 ar
52 26 40 1
@<TRIPOS>SUBSTRUCTURE
1	SAM1	1	GROUP	1 C	SAM
