# created with PyMOL 2.5.0
@<TRIPOS>MOLECULE
5EHI
27 29 1                 
SMALL
USER_CHARGES
@<TRIPOS>ATOM
1	   N	38.120	43.725	-7.248	N.3	1	SAM4001	0.000	
2	  CA	37.180	44.866	-7.452	C.3	1	SAM4001	0.000	
3	   C	37.886	45.976	-8.235	C.2	1	SAM4001	0.000	
4	   O	39.123	45.948	-8.273	O.co2	1	SAM4001	0.000	
5	  CB	36.705	45.410	-6.107	C.3	1	SAM4001	0.000	
6	  CG	35.819	44.426	-5.345	C.3	1	SAM4001	0.000	
7	  SD	34.196	44.688	-5.917	S.3	1	SAM4001	0.000	
8	  CE	33.664	46.128	-5.098	C.3	1	SAM4001	0.000	
9	 C5'	33.329	43.378	-4.999	C.3	1	SAM4001	0.000	
10	 C4'	32.042	43.152	-5.757	C.3	1	SAM4001	0.000	
11	 O4'	31.386	41.917	-5.424	O.3	1	SAM4001	0.000	
12	 C3'	30.985	44.246	-5.559	C.3	1	SAM4001	0.000	
13	 O3'	30.970	45.108	-6.691	O.3	1	SAM4001	0.000	
14	 C2'	29.673	43.467	-5.435	C.3	1	SAM4001	0.000	
15	 O2'	28.649	43.963	-6.286	O.3	1	SAM4001	0.000	
16	 C1'	30.086	42.097	-5.927	C.3	1	SAM4001	0.000	
17	 OXT	37.166	46.859	-8.738	O.co2	1	SAM4001	0.000	
18	  N1	27.916	37.614	-7.181	N.2	1	SAM4001	0.000	
19	  C2	28.705	38.448	-7.867	C.2	1	SAM4001	0.000	
20	  N3	29.236	39.609	-7.479	N.2	1	SAM4001	0.000	
21	  C4	28.894	39.891	-6.215	C.2	1	SAM4001	0.000	
22	  C5	28.090	39.132	-5.385	C.2	1	SAM4001	0.000	
23	  C6	27.566	37.939	-5.917	C.2	1	SAM4001	0.000	
24	  N6	26.714	37.143	-5.257	N.pl3	1	SAM4001	0.000	
25	  N7	27.936	39.750	-4.154	N.2	1	SAM4001	0.000	
26	  C8	28.630	40.855	-4.271	C.2	1	SAM4001	0.000	
27	  N9	29.241	41.000	-5.489	N.2	1	SAM4001	0.000	
@<TRIPOS>BOND
1 1 2 1
2 2 3 1
3 2 5 1
4 3 4 ar
5 3 17 ar
6 5 6 1
7 6 7 1
8 7 8 1
9 7 9 1
10 9 10 1
11 10 11 1
12 10 12 1
13 11 16 1
14 12 13 1
15 12 14 1
16 14 15 1
17 14 16 1
18 16 27 1
19 18 19 ar
20 18 23 ar
21 19 20 ar
22 20 21 ar
23 21 22 ar
24 21 27 ar
25 22 23 ar
26 22 25 ar
27 23 24 1
28 25 26 ar
29 26 27 ar
@<TRIPOS>SUBSTRUCTURE
1	SAM4001	1	GROUP	1 A	SAM
