@<TRIPOS>MOLECULE
5EHI.C
51 53 1 0 0 
SMALL
USER_CHARGES


@<TRIPOS>ATOM
  1 N       13.0230    11.2760   -16.7450 N.4   1 SAM  -0.8530 
  2 H1      12.5539    11.8030   -16.0223 H     1 SAM   0.4500 
  3 H2      13.2718    11.8937   -17.5044 H     1 SAM   0.4500 
  4 H3      13.8591    10.8550   -16.3658 H     1 SAM   0.4500 
  5 CA      12.1150    10.2090   -17.2500 C.3   1 SAM   0.3170 
  6 HA      12.6168     9.6371   -18.0306 H     1 SAM   0.0800 
  7 C       10.8620    10.8460   -17.8650 C.2   1 SAM   0.9060 
  8 O       10.7570    12.0850   -17.7930 O.co2 1 SAM  -0.9000 
  9 CB      11.7680     9.2340   -16.1230 C.3   1 SAM  -0.1600 
 10 HB1     10.6915     9.0635   -16.1347 H     1 SAM   0.0800 
 11 HB2     12.0536     9.6887   -15.1744 H     1 SAM   0.0800 
 12 CG      12.4800     7.8670   -16.2430 C.3   1 SAM  -0.1525 
 13 HG1     13.5016     8.0053   -16.5970 H     1 SAM   0.0800 
 14 HG2     11.9398     7.2216   -16.9356 H     1 SAM   0.0800 
 15 SD      12.4870     7.1500   -14.6160 S.3   1 SAM   0.9775 
 16 CE      11.0820     6.1420   -14.4560 C.3   1 SAM  -0.2325 
 17 HE1     10.1841     6.7498   -14.5677 H     1 SAM   0.0800 
 18 HE2     11.0823     5.6717   -13.4727 H     1 SAM   0.0800 
 19 HE3     11.0977     5.3718   -15.2271 H     1 SAM   0.0800 
 20 C5'     13.9890     6.1560   -14.4330 C.3   1 SAM  -0.1525 
 21 H5'1    13.8899     5.5612   -13.5250 H     1 SAM   0.0800 
 22 H5'2    14.8330     6.8380   -14.3302 H     1 SAM   0.0800 
 23 C4'     14.2900     5.2060   -15.5870 C.3   1 SAM   0.2000 
 24 H4'     14.1700     5.8126   -16.4846 H     1 SAM   0.0800 
 25 O4'     15.6190     4.6660   -15.4110 O.3   1 SAM  -0.5600 
 26 C3'     13.3450     4.0080   -15.7260 C.3   1 SAM   0.2000 
 27 H3'     12.5319     3.9976   -15.0002 H     1 SAM   0.0800 
 28 O3'     12.6920     4.0360   -16.9900 O.3   1 SAM  -0.6800 
 29 H3'     12.1485     3.2472   -17.0535 H     1 SAM   0.4000 
 30 C2'     14.2630     2.7930   -15.5380 C.3   1 SAM   0.2000 
 31 H2'     14.2655     2.3722   -14.5325 H     1 SAM   0.0800 
 32 O2'     13.8580     1.7150   -16.3700 O.3   1 SAM  -0.6800 
 33 H2'     13.8398     2.0371   -17.2742 H     1 SAM   0.4000 
 34 C1'     15.6020     3.3720   -15.9650 C.3   1 SAM   0.5691 
 35 H1'     15.6621     3.3231   -17.0522 H     1 SAM   0.0800 
 36 OXT     10.0360    10.0740   -18.4130 O.co2 1 SAM  -0.9000 
 37 N1      20.3490     1.8460   -17.2170 N.2   1 SAM  -0.6610 
 38 C2      19.4200     2.5280   -17.8940 C.2   1 SAM   0.6010 
 39 H2      19.7062     2.8513   -18.8839 H     1 SAM   0.0600 
 40 N3      18.1830     2.8640   -17.5100 N.2   1 SAM  -0.6610 
 41 C4      17.9390     2.4580   -16.2540 C.2   1 SAM   0.5000 
 42 C5      18.8030     1.7660   -15.4260 C.2   1 SAM   0.4500 
 43 C6      20.0660     1.4300   -15.9590 C.2   1 SAM   0.6110 
 44 N6      20.9610     0.6700   -15.3220 N.2   1 SAM  -0.2000 
 45 H62     21.8493     0.4643   -15.7564 H     1 SAM   0.4000 
 46 H61     20.7494     0.3010   -14.4059 H     1 SAM   0.4000 
 47 N7      18.2150     1.5270   -14.1920 N.2   1 SAM  -0.6960 
 48 C8      17.0280     2.0710   -14.3030 C.3   1 SAM   0.4551 
 49 H81     16.9292     2.8379   -13.5348 H     1 SAM   0.0800 
 50 H82     16.2791     1.2958   -14.1409 H     1 SAM   0.0800 
 51 N9      16.7920     2.6500   -15.5230 N.pl3 1 SAM  -0.7882 
@<TRIPOS>BOND
  1   1   2  1   
  2   1   3  1   
  3   1   4  1   
  4   1   5  1   
  5   5   6  1   
  6   5   7  1   
  7   5   9  1   
  8   7   8  ar  
  9   7  36  ar  
 10   9  10  1   
 11   9  11  1   
 12   9  12  1   
 13  12  13  1   
 14  12  14  1   
 15  12  15  1   
 16  15  16  1   
 17  15  20  1   
 18  16  17  1   
 19  16  18  1   
 20  16  19  1   
 21  20  21  1   
 22  20  22  1   
 23  20  23  1   
 24  23  24  1   
 25  23  25  1   
 26  23  26  1   
 27  25  34  1   
 28  26  27  1   
 29  26  28  1   
 30  26  30  1   
 31  28  29  1   
 32  30  31  1   
 33  30  32  1   
 34  30  34  1   
 35  32  33  1   
 36  34  35  1   
 37  34  51  1   
 38  37  38  2   
 39  37  43  1   
 40  38  39  1   
 41  38  40  1   
 42  40  41  2   
 43  41  42  1   
 44  41  51  1   
 45  42  43  1   
 46  42  47  2   
 47  43  44  2   
 48  44  45  1   
 49  44  46  1   
 50  47  48  1   
 51  48  49  1   
 52  48  50  1   
 53  48  51  1   
@<TRIPOS>SUBSTRUCTURE
  1 SAM  23 GROUP 4 C **** 0

# MOE 2022.02 (io_trps.svl 2020.11)
