@<TRIPOS>MOLECULE
3TM4.A
51 53 1 0 0 
SMALL
USER_CHARGES


@<TRIPOS>ATOM
  1 N       76.0910    10.8380    79.5210 N.4   1 SAM  -0.8530 
  2 H1      75.3526    11.5271    79.5299 H     1 SAM   0.4500 
  3 H2      75.8004    10.0402    78.9741 H     1 SAM   0.4500 
  4 H3      76.9226    11.2408    79.1132 H     1 SAM   0.4500 
  5 CA      76.3830    10.4030    80.9200 C.3   1 SAM   0.3170 
  6 HA      77.1801     9.6597    80.9057 H     1 SAM   0.0800 
  7 C       75.1580     9.8010    81.6050 C.2   1 SAM   0.9060 
  8 O       74.0670     9.7230    81.0010 O.co2 1 SAM  -0.9000 
  9 CB      76.7010    11.6870    81.6880 C.3   1 SAM  -0.1600 
 10 HB1     76.5384    11.5098    82.7511 H     1 SAM   0.0800 
 11 HB2     76.0322    12.4764    81.3448 H     1 SAM   0.0800 
 12 CG      78.1420    12.1390    81.4800 C.3   1 SAM  -0.1525 
 13 HG1     78.3277    12.2525    80.4119 H     1 SAM   0.0800 
 14 HG2     78.8134    11.3829    81.8871 H     1 SAM   0.0800 
 15 SD      78.4660    13.7330    82.3130 S.3   1 SAM   0.9775 
 16 CE      77.7010    15.0510    81.3410 C.3   1 SAM  -0.2325 
 17 HE1     76.6169    14.9905    81.4365 H     1 SAM   0.0800 
 18 HE2     77.9803    14.9388    80.2934 H     1 SAM   0.0800 
 19 HE3     78.0445    16.0186    81.7069 H     1 SAM   0.0800 
 20 C5'     80.2240    13.9740    82.0490 C.3   1 SAM  -0.1525 
 21 H5'1    80.4903    14.9882    82.3466 H     1 SAM   0.0800 
 22 H5'2    80.4445    13.8363    80.9905 H     1 SAM   0.0800 
 23 C4'     81.0520    12.9910    82.8560 C.3   1 SAM   0.2000 
 24 H4'     80.6750    12.0108    82.5641 H     1 SAM   0.0800 
 25 O4'     82.3980    13.1960    82.5690 O.3   1 SAM  -0.5600 
 26 C3'     80.9110    13.0890    84.3870 C.3   1 SAM   0.2000 
 27 H3'     80.2249    13.8459    84.7671 H     1 SAM   0.0800 
 28 O3'     80.4350    11.8150    84.8170 O.3   1 SAM  -0.6800 
 29 H3'     80.4202    11.8195    85.7769 H     1 SAM   0.4000 
 30 C2'     82.3360    13.3940    84.8650 C.3   1 SAM   0.2000 
 31 H2'     82.4410    14.4540    85.0962 H     1 SAM   0.0800 
 32 O2'     82.7630    12.8090    86.0780 O.3   1 SAM  -0.6800 
 33 H2'     82.7070    11.8561    85.9762 H     1 SAM   0.4000 
 34 C1'     83.1430    12.8250    83.7030 C.3   1 SAM   0.5691 
 35 H1'     83.2871    11.7501    83.8119 H     1 SAM   0.0800 
 36 OXT     75.2170     9.4740    82.8150 O.co2 1 SAM  -0.9000 
 37 N1      88.0440    11.7600    82.5670 N.2   1 SAM  -0.6610 
 38 C2      86.9440    10.9410    82.4820 C.2   1 SAM   0.6010 
 39 H2      87.0416     9.9306    82.1133 H     1 SAM   0.0600 
 40 N3      85.7310    11.4190    82.8680 N.2   1 SAM  -0.6610 
 41 C4      85.5940    12.7060    83.2340 C.2   1 SAM   0.5000 
 42 C5      86.6880    13.5670    83.2870 C.2   1 SAM   0.4500 
 43 C6      87.9300    13.0810    82.8950 C.2   1 SAM   0.6110 
 44 N6      89.0430    13.8300    82.8860 N.2   1 SAM  -0.2000 
 45 H62     89.9209    13.4265    82.5916 H     1 SAM   0.4000 
 46 H61     89.0031    14.7974    83.1736 H     1 SAM   0.4000 
 47 N7      86.2350    14.7720    83.6730 N.2   1 SAM  -0.6960 
 48 C8      84.8990    14.6880    83.9110 C.3   1 SAM   0.4551 
 49 H81     84.3630    15.3937    83.2764 H     1 SAM   0.0800 
 50 H82     84.6928    14.9115    84.9577 H     1 SAM   0.0800 
 51 N9      84.5020    13.3880    83.6160 N.pl3 1 SAM  -0.7882 
@<TRIPOS>BOND
  1   1   2  1   
  2   1   3  1   
  3   1   4  1   
  4   1   5  1   
  5   5   6  1   
  6   5   7  1   
  7   5   9  1   
  8   7   8  ar  
  9   7  36  ar  
 10   9  10  1   
 11   9  11  1   
 12   9  12  1   
 13  12  13  1   
 14  12  14  1   
 15  12  15  1   
 16  15  16  1   
 17  15  20  1   
 18  16  17  1   
 19  16  18  1   
 20  16  19  1   
 21  20  21  1   
 22  20  22  1   
 23  20  23  1   
 24  23  24  1   
 25  23  25  1   
 26  23  26  1   
 27  25  34  1   
 28  26  27  1   
 29  26  28  1   
 30  26  30  1   
 31  28  29  1   
 32  30  31  1   
 33  30  32  1   
 34  30  34  1   
 35  32  33  1   
 36  34  35  1   
 37  34  51  1   
 38  37  38  2   
 39  37  43  1   
 40  38  39  1   
 41  38  40  1   
 42  40  41  2   
 43  41  42  1   
 44  41  51  1   
 45  42  43  1   
 46  42  47  2   
 47  43  44  2   
 48  44  45  1   
 49  44  46  1   
 50  47  48  1   
 51  48  49  1   
 52  48  50  1   
 53  48  51  1   
@<TRIPOS>SUBSTRUCTURE
  1 SAM  23 GROUP 4 A **** 0

# MOE 2022.02 (io_trps.svl 2020.11)
