# created with PyMOL 2.5.0
@<TRIPOS>MOLECULE
3TM4
27 29 1                 
SMALL
USER_CHARGES
@<TRIPOS>ATOM
1	   N	76.091	10.838	79.521	N.3	1	SAM401	0.000	
2	  CA	76.383	10.403	80.920	C.3	1	SAM401	0.000	
3	   C	75.158	9.801	81.605	C.2	1	SAM401	0.000	
4	   O	74.067	9.723	81.001	O.co2	1	SAM401	0.000	
5	  CB	76.701	11.687	81.688	C.3	1	SAM401	0.000	
6	  CG	78.142	12.139	81.480	C.3	1	SAM401	0.000	
7	  SD	78.466	13.733	82.313	S.3	1	SAM401	0.000	
8	  CE	77.701	15.051	81.341	C.3	1	SAM401	0.000	
9	 C5'	80.224	13.974	82.049	C.3	1	SAM401	0.000	
10	 C4'	81.052	12.991	82.856	C.3	1	SAM401	0.000	
11	 O4'	82.398	13.196	82.569	O.3	1	SAM401	0.000	
12	 C3'	80.911	13.089	84.387	C.3	1	SAM401	0.000	
13	 O3'	80.435	11.815	84.817	O.3	1	SAM401	0.000	
14	 C2'	82.336	13.394	84.865	C.3	1	SAM401	0.000	
15	 O2'	82.763	12.809	86.078	O.3	1	SAM401	0.000	
16	 C1'	83.143	12.825	83.703	C.3	1	SAM401	0.000	
17	 OXT	75.217	9.474	82.815	O.co2	1	SAM401	0.000	
18	  N1	88.044	11.760	82.567	N.2	1	SAM401	0.000	
19	  C2	86.944	10.941	82.482	C.2	1	SAM401	0.000	
20	  N3	85.731	11.419	82.868	N.2	1	SAM401	0.000	
21	  C4	85.594	12.706	83.234	C.2	1	SAM401	0.000	
22	  C5	86.688	13.567	83.287	C.2	1	SAM401	0.000	
23	  C6	87.930	13.081	82.895	C.2	1	SAM401	0.000	
24	  N6	89.043	13.830	82.886	N.pl3	1	SAM401	0.000	
25	  N7	86.235	14.772	83.673	N.2	1	SAM401	0.000	
26	  C8	84.899	14.688	83.911	C.2	1	SAM401	0.000	
27	  N9	84.502	13.388	83.616	N.2	1	SAM401	0.000	
@<TRIPOS>BOND
1 1 2 1
2 2 3 1
3 2 5 1
4 3 4 ar
5 3 17 ar
6 5 6 1
7 6 7 1
8 7 8 1
9 7 9 1
10 9 10 1
11 10 11 1
12 10 12 1
13 11 16 1
14 12 13 1
15 12 14 1
16 14 15 1
17 14 16 1
18 16 27 1
19 18 19 ar
20 18 23 ar
21 19 20 ar
22 20 21 ar
23 21 22 ar
24 21 27 ar
25 22 23 ar
26 22 25 ar
27 23 24 1
28 25 26 ar
29 26 27 ar
@<TRIPOS>SUBSTRUCTURE
1	SAM401	1	GROUP	1 A	SAM
