# created with PyMOL 2.4.0
@<TRIPOS>MOLECULE
temp
50 52 1                 
SMALL
USER_CHARGES
@<TRIPOS>ATOM
1	   N	76.091	10.838	79.521	N.4	1	SAM1	0.000	
2	  CA	76.383	10.403	80.920	C.3	1	SAM1	0.000	
3	   C	75.158	9.801	81.605	C.2	1	SAM1	0.000	
4	   O	74.067	9.723	81.001	O.co2	1	SAM1	0.000	
5	  CB	76.701	11.687	81.688	C.3	1	SAM1	0.000	
6	  CG	78.142	12.139	81.480	C.3	1	SAM1	0.000	
7	  SD	78.466	13.733	82.313	S.3	1	SAM1	0.000	
8	  CE	77.701	15.051	81.341	C.3	1	SAM1	0.000	
9	 C5'	80.224	13.974	82.049	C.3	1	SAM1	0.000	
10	 C4'	81.052	12.991	82.856	C.3	1	SAM1	0.000	
11	 O4'	82.398	13.196	82.569	O.3	1	SAM1	0.000	
12	 C3'	80.911	13.089	84.387	C.3	1	SAM1	0.000	
13	 O3'	80.435	11.815	84.817	O.3	1	SAM1	0.000	
14	 C2'	82.336	13.394	84.865	C.3	1	SAM1	0.000	
15	 O2'	82.763	12.809	86.078	O.3	1	SAM1	0.000	
16	 C1'	83.143	12.825	83.703	C.3	1	SAM1	0.000	
17	 OXT	75.217	9.474	82.815	O.co2	1	SAM1	0.000	
18	  N1	88.044	11.760	82.567	N.2	1	SAM1	0.000	
19	  C2	86.944	10.941	82.482	C.2	1	SAM1	0.000	
20	  N3	85.731	11.419	82.868	N.2	1	SAM1	0.000	
21	  C4	85.594	12.706	83.234	C.2	1	SAM1	0.000	
22	  C5	86.688	13.567	83.287	C.2	1	SAM1	0.000	
23	  C6	87.930	13.081	82.895	C.2	1	SAM1	0.000	
24	  N6	89.043	13.830	82.886	N.pl3	1	SAM1	0.000	
25	  N7	86.235	14.772	83.673	N.2	1	SAM1	0.000	
26	  C8	84.899	14.688	83.911	C.2	1	SAM1	0.000	
27	  N9	84.502	13.388	83.616	N.2	1	SAM1	0.000	
28	  HA	77.180	9.660	80.906	 H	1	SAM1	0.000	
29	 HB1	76.538	11.510	82.751	 H	1	SAM1	0.000	
30	 HB2	76.032	12.476	81.345	 H	1	SAM1	0.000	
31	 HG1	78.328	12.252	80.412	 H	1	SAM1	0.000	
32	 HG2	78.813	11.383	81.887	 H	1	SAM1	0.000	
33	 HE1	76.617	14.991	81.437	 H	1	SAM1	0.000	
34	 HE2	77.980	14.939	80.293	 H	1	SAM1	0.000	
35	 HE3	78.045	16.019	81.707	 H	1	SAM1	0.000	
36	  H1	75.353	11.527	79.530	 H	1	SAM1	0.000	
37	  H2	75.800	10.040	78.974	 H	1	SAM1	0.000	
38	  H2	87.042	9.931	82.113	 H	1	SAM1	0.000	
39	  H3	76.923	11.241	79.113	 H	1	SAM1	0.000	
40	  H8	84.262	15.485	84.265	 H	1	SAM1	0.000	
41	 H1'	83.287	11.750	83.812	 H	1	SAM1	0.000	
42	 H2'	82.441	14.454	85.096	 H	1	SAM1	0.000	
43	 H2'	82.177	13.120	86.772	 H	1	SAM1	0.000	
44	 H3'	80.225	13.846	84.767	 H	1	SAM1	0.000	
45	 H3'	80.420	11.819	85.777	 H	1	SAM1	0.000	
46	 H4'	80.675	12.011	82.564	 H	1	SAM1	0.000	
47	 H61	89.003	14.797	83.174	 H	1	SAM1	0.000	
48	 H62	89.921	13.427	82.592	 H	1	SAM1	0.000	
49	H5'1	80.490	14.988	82.347	 H	1	SAM1	0.000	
50	H5'2	80.445	13.836	80.991	 H	1	SAM1	0.000	
@<TRIPOS>BOND
1 1 2 1
2 1 36 1
3 1 37 1
4 1 39 1
5 2 3 1
6 2 5 1
7 2 28 1
8 3 4 ar
9 3 17 ar
10 5 6 1
11 5 29 1
12 5 30 1
13 6 7 1
14 6 31 1
15 6 32 1
16 7 8 1
17 7 9 1
18 8 33 1
19 8 34 1
20 8 35 1
21 9 10 1
22 9 49 1
23 9 50 1
24 10 11 1
25 10 12 1
26 10 46 1
27 11 16 1
28 12 13 1
29 12 14 1
30 12 44 1
31 13 45 1
32 14 15 1
33 14 16 1
34 14 42 1
35 15 43 1
36 16 27 1
37 16 41 1
38 18 19 ar
39 18 23 ar
40 19 20 ar
41 19 38 1
42 20 21 ar
43 21 22 ar
44 21 27 ar
45 22 23 ar
46 22 25 ar
47 23 24 1
48 24 47 1
49 24 48 1
50 25 26 ar
51 26 27 ar
52 26 40 1
@<TRIPOS>SUBSTRUCTURE
1	SAM1	1	GROUP	1 A	SAM
