@<TRIPOS>MOLECULE
6IX8.A
52 55 1 0 0 
SMALL
USER_CHARGES


@<TRIPOS>ATOM
  1 C1     -22.1320   -24.9570    16.0800 C.3   1 B3O   0.0582 
  2 H1     -22.0558   -24.9982    14.9934 H     1 B3O   0.0800 
  3 N1     -22.9040   -27.8490    15.0720 N.am  1 B3O  -0.7301 
  4 H1     -22.3598   -28.6905    14.9460 H     1 B3O   0.3700 
  5 O1     -25.2300   -24.5020    15.4660 O.2   1 B3O  -0.5700 
  6 C2     -22.2730   -23.5500    16.5290 C.2   1 B3O  -0.2882 
  7 H2     -21.9957   -22.7230    15.8922 H     1 B3O   0.1500 
  8 O2     -22.6530   -27.8960    17.3770 O.2   1 B3O  -0.5700 
  9 C3     -22.7540   -23.3560    17.7450 C.2   1 B3O  -0.2882 
 10 H3     -22.2114   -22.7354    18.4427 H     1 B3O   0.1500 
 11 C4     -24.0500   -23.9920    18.1650 C.3   1 B3O   0.0582 
 12 H4     -24.8498   -23.4944    17.6166 H     1 B3O   0.0800 
 13 C5     -24.2980   -23.7990    19.6610 C.3   1 B3O  -0.1600 
 14 H51    -24.2845   -22.7338    19.8917 H     1 B3O   0.0800 
 15 H52    -23.5108   -24.3023    20.2223 H     1 B3O   0.0800 
 16 C6     -25.6350   -24.3750    20.0570 C.3   1 B3O  -0.1600 
 17 H61    -26.4133   -23.6831    19.7350 H     1 B3O   0.0800 
 18 H62    -25.6581   -24.4682    21.1428 H     1 B3O   0.0800 
 19 C7     -25.9360   -25.7530    19.4500 C.3   1 B3O  -0.1600 
 20 H71    -27.0072   -25.9345    19.5380 H     1 B3O   0.0800 
 21 H72    -25.3921   -26.5021    20.0255 H     1 B3O   0.0800 
 22 C8     -25.5460   -25.9110    17.9740 C.3   1 B3O  -0.0800 
 23 H8     -26.1102   -25.2474    17.3187 H     1 B3O   0.0800 
 24 C9     -24.0810   -25.5060    17.8020 C.3   1 B3O  -0.0800 
 25 H9     -23.4447   -26.1068    18.4518 H     1 B3O   0.0800 
 26 C10    -23.4510   -25.8210    16.3970 C.3   1 B3O   0.1220 
 27 C11    -24.4410   -25.4290    15.2850 C.2   1 B3O   0.4480 
 28 C12    -24.4150   -26.2350    14.0690 C.3   1 B3O   0.1245 
 29 H12    -24.9723   -27.1605    14.2140 H     1 B3O   0.0800 
 30 C13    -23.5590   -27.3120    13.9680 C.3   1 B3O   0.1401 
 31 H131   -24.1437   -28.1248    13.5372 H     1 B3O   0.0800 
 32 H132   -22.7787   -27.0147    13.2674 H     1 B3O   0.0800 
 33 C14    -22.9630   -27.2820    16.3410 C.2   1 B3O   0.5690 
 34 C15    -25.2400   -25.7730    12.9170 C.ar  1 B3O  -0.1435 
 35 C16    -26.5980   -25.4900    13.0510 C.ar  1 B3O  -0.1500 
 36 H16    -27.0740   -25.6159    14.0122 H     1 B3O   0.1500 
 37 C17    -27.3530   -25.0470    11.9650 C.ar  1 B3O  -0.1500 
 38 H17    -28.4073   -24.8335    12.0615 H     1 B3O   0.1500 
 39 C18    -26.6930   -24.8930    10.7590 C.ar  1 B3O  -0.1500 
 40 H18    -27.2541   -24.5474     9.9034 H     1 B3O   0.1500 
 41 C19    -25.3480   -25.1620    10.6020 C.ar  1 B3O  -0.1500 
 42 H19    -24.8879   -25.0250     9.6346 H     1 B3O   0.1500 
 43 C20    -24.5670   -25.6120    11.6830 C.ar  1 B3O  -0.1500 
 44 H20    -23.5131   -25.8226    11.5765 H     1 B3O   0.1500 
 45 C21    -20.8180   -25.5390    16.6230 C.3   1 B3O  -0.2400 
 46 H211   -20.8367   -25.5235    17.7127 H     1 B3O   0.0800 
 47 H212   -19.9802   -24.9403    16.2654 H     1 B3O   0.0800 
 48 H213   -20.7048   -26.5661    16.2762 H     1 B3O   0.0800 
 49 C22    -25.8870   -27.3010    17.5300 C.3   1 B3O  -0.2400 
 50 H221   -25.3521   -28.0215    18.1488 H     1 B3O   0.0800 
 51 H222   -25.5965   -27.4310    16.4875 H     1 B3O   0.0800 
 52 H223   -26.9604   -27.4616    17.6308 H     1 B3O   0.0800 
@<TRIPOS>BOND
  1   1   2  1   
  2   1   6  1   
  3   1  26  1   
  4   1  45  1   
  5   3   4  1   
  6   3  30  1   
  7   3  33  am  
  8   5  27  2   
  9   6   7  1   
 10   6   9  2   
 11   8  33  2   
 12   9  10  1   
 13   9  11  1   
 14  11  12  1   
 15  11  13  1   
 16  11  24  1   
 17  13  14  1   
 18  13  15  1   
 19  13  16  1   
 20  16  17  1   
 21  16  18  1   
 22  16  19  1   
 23  19  20  1   
 24  19  21  1   
 25  19  22  1   
 26  22  23  1   
 27  22  24  1   
 28  22  49  1   
 29  24  25  1   
 30  24  26  1   
 31  26  27  1   
 32  26  33  1   
 33  27  28  1   
 34  28  29  1   
 35  28  30  1   
 36  28  34  1   
 37  30  31  1   
 38  30  32  1   
 39  34  35  ar  
 40  34  43  ar  
 41  35  36  1   
 42  35  37  ar  
 43  37  38  1   
 44  37  39  ar  
 45  39  40  1   
 46  39  41  ar  
 47  41  42  1   
 48  41  43  ar  
 49  43  44  1   
 50  45  46  1   
 51  45  47  1   
 52  45  48  1   
 53  49  50  1   
 54  49  51  1   
 55  49  52  1   
@<TRIPOS>SUBSTRUCTURE
  1 B3O  27 GROUP 4 A **** 0

# MOE 2022.02 (io_trps.svl 2020.11)
