# created with PyMOL 2.5.0
@<TRIPOS>MOLECULE
6IX8
25 28 1                 
SMALL
USER_CHARGES
@<TRIPOS>ATOM
1	  C1	-22.132	-24.957	16.080	C.3	1	B3O408	0.000	
2	  N1	-22.904	-27.849	15.072	N.pl3	1	B3O408	0.000	
3	  O1	-25.230	-24.502	15.466	O.2	1	B3O408	0.000	
4	  C2	-22.273	-23.550	16.529	C.3	1	B3O408	0.000	
5	  O2	-22.653	-27.896	17.377	O.2	1	B3O408	0.000	
6	  C3	-22.754	-23.356	17.745	C.3	1	B3O408	0.000	
7	  C4	-24.050	-23.992	18.165	C.3	1	B3O408	0.000	
8	  C5	-24.298	-23.799	19.661	C.3	1	B3O408	0.000	
9	  C6	-25.635	-24.375	20.057	C.3	1	B3O408	0.000	
10	  C7	-25.936	-25.753	19.450	C.3	1	B3O408	0.000	
11	  C8	-25.546	-25.911	17.974	C.3	1	B3O408	0.000	
12	  C9	-24.081	-25.506	17.802	C.3	1	B3O408	0.000	
13	 C10	-23.451	-25.821	16.397	C.3	1	B3O408	0.000	
14	 C11	-24.441	-25.429	15.285	C.2	1	B3O408	0.000	
15	 C12	-24.415	-26.235	14.069	C.3	1	B3O408	0.000	
16	 C13	-23.559	-27.312	13.968	C.3	1	B3O408	0.000	
17	 C14	-22.963	-27.282	16.341	C.2	1	B3O408	0.000	
18	 C15	-25.240	-25.773	12.917	C.2	1	B3O408	0.000	
19	 C16	-26.598	-25.490	13.051	C.2	1	B3O408	0.000	
20	 C17	-27.353	-25.047	11.965	C.2	1	B3O408	0.000	
21	 C18	-26.693	-24.893	10.759	C.2	1	B3O408	0.000	
22	 C19	-25.348	-25.162	10.602	C.2	1	B3O408	0.000	
23	 C20	-24.567	-25.612	11.683	C.2	1	B3O408	0.000	
24	 C21	-20.818	-25.539	16.623	C.3	1	B3O408	0.000	
25	 C22	-25.887	-27.301	17.530	C.3	1	B3O408	0.000	
@<TRIPOS>BOND
1 1 4 1
2 1 13 1
3 1 24 1
4 2 16 1
5 2 17 1
6 3 14 2
7 4 6 1
8 5 17 2
9 6 7 1
10 7 8 1
11 7 12 1
12 8 9 1
13 9 10 1
14 10 11 1
15 11 12 1
16 11 25 1
17 12 13 1
18 13 14 1
19 13 17 1
20 14 15 1
21 15 16 1
22 15 18 1
23 18 19 ar
24 18 23 ar
25 19 20 ar
26 20 21 ar
27 21 22 ar
28 22 23 ar
@<TRIPOS>SUBSTRUCTURE
1	B3O408	1	GROUP	1 A	B3O
