# created with PyMOL 2.5.0
@<TRIPOS>MOLECULE
6IX8
25 28 1                 
SMALL
USER_CHARGES
@<TRIPOS>ATOM
1	  C1	-50.049	-11.456	28.406	C.3	1	B3O408	0.000	
2	  N1	-50.301	-8.409	27.171	N.pl3	1	B3O408	0.000	
3	  O1	-48.389	-11.729	25.760	O.2	1	B3O408	0.000	
4	  C2	-49.588	-11.772	29.781	C.3	1	B3O408	0.000	
5	  O2	-48.913	-8.360	28.979	O.2	1	B3O408	0.000	
6	  C3	-48.446	-12.419	29.838	C.3	1	B3O408	0.000	
7	  C4	-47.423	-12.213	28.760	C.3	1	B3O408	0.000	
8	  C5	-46.064	-12.517	29.392	C.3	1	B3O408	0.000	
9	  C6	-44.903	-12.074	28.546	C.3	1	B3O408	0.000	
10	  C7	-45.084	-10.635	28.073	C.3	1	B3O408	0.000	
11	  C8	-46.404	-10.412	27.352	C.3	1	B3O408	0.000	
12	  C9	-47.541	-10.736	28.287	C.3	1	B3O408	0.000	
13	 C10	-48.981	-10.446	27.731	C.3	1	B3O408	0.000	
14	 C11	-49.090	-10.836	26.250	C.2	1	B3O408	0.000	
15	 C12	-50.013	-10.060	25.437	C.3	1	B3O408	0.000	
16	 C13	-50.557	-8.883	25.899	C.3	1	B3O408	0.000	
17	 C14	-49.384	-8.992	28.036	C.2	1	B3O408	0.000	
18	 C15	-50.251	-10.514	24.030	C.2	1	B3O408	0.000	
19	 C16	-49.178	-10.774	23.170	C.2	1	B3O408	0.000	
20	 C17	-49.446	-11.182	21.856	C.2	1	B3O408	0.000	
21	 C18	-50.766	-11.299	21.464	C.2	1	B3O408	0.000	
22	 C19	-51.837	-11.042	22.304	C.2	1	B3O408	0.000	
23	 C20	-51.597	-10.646	23.632	C.2	1	B3O408	0.000	
24	 C21	-51.536	-11.103	28.418	C.3	1	B3O408	0.000	
25	 C22	-46.434	-8.974	26.975	C.3	1	B3O408	0.000	
@<TRIPOS>BOND
1 1 4 1
2 1 13 1
3 1 24 1
4 2 16 1
5 2 17 1
6 3 14 2
7 4 6 1
8 5 17 2
9 6 7 1
10 7 8 1
11 7 12 1
12 8 9 1
13 9 10 1
14 10 11 1
15 11 12 1
16 11 25 1
17 12 13 1
18 13 14 1
19 13 17 1
20 14 15 1
21 15 16 1
22 15 18 1
23 18 19 ar
24 18 23 ar
25 19 20 ar
26 20 21 ar
27 21 22 ar
28 22 23 ar
@<TRIPOS>SUBSTRUCTURE
1	B3O408	1	GROUP	1 B	B3O
