@<TRIPOS>MOLECULE
6IX8.B
52 55 1 0 0 
SMALL
USER_CHARGES


@<TRIPOS>ATOM
  1 C1     -50.0490   -11.4560    28.4060 C.3   1 B3O   0.0582 
  2 H1     -50.0463   -12.3052    27.7227 H     1 B3O   0.0800 
  3 N1     -50.3010    -8.4090    27.1710 N.am  1 B3O  -0.7301 
  4 H1     -50.8076    -7.5952    27.4889 H     1 B3O   0.3700 
  5 O1     -48.3890   -11.7290    25.7600 O.2   1 B3O  -0.5700 
  6 C2     -49.5880   -11.7720    29.7810 C.2   1 B3O  -0.2882 
  7 H2     -50.1458   -11.4929    30.6627 H     1 B3O   0.1500 
  8 O2     -48.9130    -8.3600    28.9790 O.2   1 B3O  -0.5700 
  9 C3     -48.4460   -12.4190    29.8380 C.2   1 B3O  -0.2882 
 10 H3     -48.2448   -13.0950    30.6559 H     1 B3O   0.1500 
 11 C4     -47.4230   -12.2130    28.7600 C.3   1 B3O   0.0582 
 12 H4     -47.5604   -12.8569    27.8913 H     1 B3O   0.0800 
 13 C5     -46.0640   -12.5170    29.3920 C.3   1 B3O  -0.1600 
 14 H51    -45.9878   -13.5931    29.5480 H     1 B3O   0.0800 
 15 H52    -46.0070   -12.0056    30.3529 H     1 B3O   0.0800 
 16 C6     -44.9030   -12.0740    28.5460 C.3   1 B3O  -0.1600 
 17 H61    -44.8265   -12.7272    27.6768 H     1 B3O   0.0800 
 18 H62    -43.9877   -12.1428    29.1339 H     1 B3O   0.0800 
 19 C7     -45.0840   -10.6350    28.0730 C.3   1 B3O  -0.1600 
 20 H71    -44.2695   -10.3873    27.3923 H     1 B3O   0.0800 
 21 H72    -45.0456    -9.9761    28.9405 H     1 B3O   0.0800 
 22 C8     -46.4040   -10.4120    27.3520 C.3   1 B3O  -0.0800 
 23 H8     -46.5021   -11.0463    26.4710 H     1 B3O   0.0800 
 24 C9     -47.5410   -10.7360    28.2870 C.3   1 B3O  -0.0800 
 25 H9     -47.4326   -10.0479    29.1254 H     1 B3O   0.0800 
 26 C10    -48.9810   -10.4460    27.7310 C.3   1 B3O   0.1220 
 27 C11    -49.0900   -10.8360    26.2500 C.2   1 B3O   0.4480 
 28 C12    -50.0130   -10.0600    25.4370 C.3   1 B3O   0.1245 
 29 H12    -50.9466   -10.2724    25.9580 H     1 B3O   0.0800 
 30 C13    -50.5570    -8.8830    25.8990 C.3   1 B3O   0.1401 
 31 H131   -50.2284    -8.1040    25.2110 H     1 B3O   0.0800 
 32 H132   -51.6386    -8.9979    25.8279 H     1 B3O   0.0800 
 33 C14    -49.3840    -8.9920    28.0360 C.2   1 B3O   0.5690 
 34 C15    -50.2510   -10.5140    24.0300 C.ar  1 B3O  -0.1435 
 35 C16    -49.1780   -10.7740    23.1700 C.ar  1 B3O  -0.1500 
 36 H16    -48.1601   -10.6621    23.5131 H     1 B3O   0.1500 
 37 C17    -49.4460   -11.1820    21.8560 C.ar  1 B3O  -0.1500 
 38 H17    -48.6422   -11.3992    21.1682 H     1 B3O   0.1500 
 39 C18    -50.7660   -11.2990    21.4640 C.ar  1 B3O  -0.1500 
 40 H18    -50.9734   -11.6069    20.4498 H     1 B3O   0.1500 
 41 C19    -51.8370   -11.0420    22.3040 C.ar  1 B3O  -0.1500 
 42 H19    -52.8492   -11.1450    21.9417 H     1 B3O   0.1500 
 43 C20    -51.5970   -10.6460    23.6320 C.ar  1 B3O  -0.1500 
 44 H20    -52.4087   -10.4514    24.3173 H     1 B3O   0.1500 
 45 C21    -51.5360   -11.1030    28.4180 C.3   1 B3O  -0.2400 
 46 H211   -51.7014   -10.2492    29.0751 H     1 B3O   0.0800 
 47 H212   -52.1092   -11.9566    28.7800 H     1 B3O   0.0800 
 48 H213   -51.8579   -10.8514    27.4075 H     1 B3O   0.0800 
 49 C22    -46.4340    -8.9740    26.9750 C.3   1 B3O  -0.2400 
 50 H221   -46.3345    -8.3613    27.8710 H     1 B3O   0.0800 
 51 H222   -47.3797    -8.7471    26.4829 H     1 B3O   0.0800 
 52 H223   -45.6098    -8.7594    26.2947 H     1 B3O   0.0800 
@<TRIPOS>BOND
  1   1   2  1   
  2   1   6  1   
  3   1  26  1   
  4   1  45  1   
  5   3   4  1   
  6   3  30  1   
  7   3  33  am  
  8   5  27  2   
  9   6   7  1   
 10   6   9  2   
 11   8  33  2   
 12   9  10  1   
 13   9  11  1   
 14  11  12  1   
 15  11  13  1   
 16  11  24  1   
 17  13  14  1   
 18  13  15  1   
 19  13  16  1   
 20  16  17  1   
 21  16  18  1   
 22  16  19  1   
 23  19  20  1   
 24  19  21  1   
 25  19  22  1   
 26  22  23  1   
 27  22  24  1   
 28  22  49  1   
 29  24  25  1   
 30  24  26  1   
 31  26  27  1   
 32  26  33  1   
 33  27  28  1   
 34  28  29  1   
 35  28  30  1   
 36  28  34  1   
 37  30  31  1   
 38  30  32  1   
 39  34  35  ar  
 40  34  43  ar  
 41  35  36  1   
 42  35  37  ar  
 43  37  38  1   
 44  37  39  ar  
 45  39  40  1   
 46  39  41  ar  
 47  41  42  1   
 48  41  43  ar  
 49  43  44  1   
 50  45  46  1   
 51  45  47  1   
 52  45  48  1   
 53  49  50  1   
 54  49  51  1   
 55  49  52  1   
@<TRIPOS>SUBSTRUCTURE
  1 B3O  27 GROUP 4 B **** 0

# MOE 2022.02 (io_trps.svl 2020.11)
