@<TRIPOS>MOLECULE
6IX8.A
51 53 1 0 0 
SMALL
USER_CHARGES


@<TRIPOS>ATOM
  1 N      -12.1280   -28.2740    13.0920 N.4   1 SAM  -0.8530 
  2 H1     -12.8624   -28.6104    13.6983 H     1 SAM   0.4500 
  3 H2     -11.2309   -28.5518    13.4637 H     1 SAM   0.4500 
  4 H3     -12.2465   -28.6673    12.1693 H     1 SAM   0.4500 
  5 CA     -12.1920   -26.8140    13.0120 C.3   1 SAM   0.3170 
  6 HA     -11.4015   -26.4444    12.3588 H     1 SAM   0.0800 
  7 C      -12.0130   -26.3040    14.4600 C.2   1 SAM   0.9060 
  8 O      -12.4760   -26.8770    15.4490 O.co2 1 SAM  -0.9000 
  9 CB     -13.4480   -26.2650    12.3300 C.3   1 SAM  -0.1600 
 10 HB1    -13.2279   -26.2259    11.2632 H     1 SAM   0.0800 
 11 HB2    -13.5879   -25.2528    12.7095 H     1 SAM   0.0800 
 12 CG     -14.7870   -26.9640    12.4670 C.3   1 SAM  -0.1525 
 13 HG1    -15.0593   -26.9905    13.5221 H     1 SAM   0.0800 
 14 HG2    -14.6878   -27.9825    12.0917 H     1 SAM   0.0800 
 15 SD     -16.1540   -26.1090    11.5190 S.3   1 SAM   0.9775 
 16 CE     -17.4020   -26.6380    12.7250 C.3   1 SAM  -0.2325 
 17 HE1    -17.4028   -25.9517    13.5718 H     1 SAM   0.0800 
 18 HE2    -17.1676   -27.6441    13.0729 H     1 SAM   0.0800 
 19 HE3    -18.3854   -26.6360    12.2548 H     1 SAM   0.0800 
 20 C5'    -16.3790   -27.3960    10.2680 C.3   1 SAM  -0.1525 
 21 H5'1   -17.3402   -27.2516     9.7748 H     1 SAM   0.0800 
 22 H5'2   -16.3620   -28.3725    10.7520 H     1 SAM   0.0800 
 23 C4'    -15.2650   -27.3340     9.2240 C.3   1 SAM   0.2000 
 24 H4'    -14.3275   -27.4280     9.7721 H     1 SAM   0.0800 
 25 O4'    -15.4530   -28.3770     8.2680 O.3   1 SAM  -0.5600 
 26 C3'    -15.2600   -26.0150     8.4320 C.3   1 SAM   0.2000 
 27 H3'    -15.8836   -25.2831     8.9454 H     1 SAM   0.0800 
 28 O3'    -13.9980   -25.3820     8.3310 O.3   1 SAM  -0.6800 
 29 H3'    -14.1179   -24.5743     7.8261 H     1 SAM   0.4000 
 30 C2'    -15.7480   -26.4090     7.0380 C.3   1 SAM   0.2000 
 31 H2'    -16.8199   -26.2315     6.9511 H     1 SAM   0.0800 
 32 O2'    -15.2430   -25.7080     5.9200 O.3   1 SAM  -0.6800 
 33 H2'    -14.2887   -25.8127     5.9185 H     1 SAM   0.4000 
 34 C1'    -15.1850   -27.8130     6.9840 C.3   1 SAM   0.5691 
 35 H1'    -14.1280   -27.7626     6.7227 H     1 SAM   0.0800 
 36 OXT    -11.3120   -25.3160    14.6930 O.co2 1 SAM  -0.9000 
 37 N1     -14.3320   -31.4110     3.3790 N.2   1 SAM  -0.6610 
 38 C2     -13.4450   -30.7380     4.1680 C.2   1 SAM   0.6010 
 39 H2     -12.3975   -30.9860     4.0805 H     1 SAM   0.0600 
 40 N3     -13.7990   -29.7810     5.0510 N.2   1 SAM  -0.6610 
 41 C4     -15.1320   -29.5310     5.1580 C.2   1 SAM   0.5000 
 42 C5     -16.0880   -30.1930     4.3780 C.2   1 SAM   0.4500 
 43 C6     -15.6670   -31.1480     3.4580 C.2   1 SAM   0.6110 
 44 N6     -16.5570   -31.7810     2.6890 N.2   1 SAM  -0.2000 
 45 H62    -16.2465   -32.4735     2.0226 H     1 SAM   0.4000 
 46 H61    -17.5404   -31.5671     2.7740 H     1 SAM   0.4000 
 47 N7     -17.3440   -29.7070     4.6950 N.2   1 SAM  -0.6960 
 48 C8     -17.1700   -28.7800     5.6780 C.3   1 SAM   0.4551 
 49 H81    -17.7117   -29.0925     6.5708 H     1 SAM   0.0800 
 50 H82    -17.5522   -27.8169     5.3397 H     1 SAM   0.0800 
 51 N9     -15.8210   -28.6620     5.9750 N.pl3 1 SAM  -0.7882 
@<TRIPOS>BOND
  1   1   2  1   
  2   1   3  1   
  3   1   4  1   
  4   1   5  1   
  5   5   6  1   
  6   5   7  1   
  7   5   9  1   
  8   7   8  ar  
  9   7  36  ar  
 10   9  10  1   
 11   9  11  1   
 12   9  12  1   
 13  12  13  1   
 14  12  14  1   
 15  12  15  1   
 16  15  16  1   
 17  15  20  1   
 18  16  17  1   
 19  16  18  1   
 20  16  19  1   
 21  20  21  1   
 22  20  22  1   
 23  20  23  1   
 24  23  24  1   
 25  23  25  1   
 26  23  26  1   
 27  25  34  1   
 28  26  27  1   
 29  26  28  1   
 30  26  30  1   
 31  28  29  1   
 32  30  31  1   
 33  30  32  1   
 34  30  34  1   
 35  32  33  1   
 36  34  35  1   
 37  34  51  1   
 38  37  38  2   
 39  37  43  1   
 40  38  39  1   
 41  38  40  1   
 42  40  41  2   
 43  41  42  1   
 44  41  51  1   
 45  42  43  1   
 46  42  47  2   
 47  43  44  2   
 48  44  45  1   
 49  44  46  1   
 50  47  48  1   
 51  48  49  1   
 52  48  50  1   
 53  48  51  1   
@<TRIPOS>SUBSTRUCTURE
  1 SAM  25 GROUP 4 A **** 0

# MOE 2022.02 (io_trps.svl 2020.11)
