@<TRIPOS>MOLECULE
6IX8.B
51 53 1 0 0 
SMALL
USER_CHARGES


@<TRIPOS>ATOM
  1 N      -59.0020    -7.8430    33.9790 N.4   1 SAM  -0.8530 
  2 H1     -58.0765    -7.4716    33.8186 H     1 SAM   0.4500 
  3 H2     -59.3401    -7.5284    34.8772 H     1 SAM   0.4500 
  4 H3     -59.6250    -7.5197    33.2528 H     1 SAM   0.4500 
  5 CA     -58.9500    -9.3170    33.9620 C.3   1 SAM   0.3170 
  6 HA     -59.9640    -9.6760    34.1380 H     1 SAM   0.0800 
  7 C      -58.0130    -9.8160    35.0970 C.2   1 SAM   0.9060 
  8 O      -56.9530    -9.2820    35.3770 O.co2 1 SAM  -0.9000 
  9 CB     -58.5520    -9.9070    32.6060 C.3   1 SAM  -0.1600 
 10 HB1    -59.4742    -9.9693    32.0283 H     1 SAM   0.0800 
 11 HB2    -58.1865   -10.9121    32.8164 H     1 SAM   0.0800 
 12 CG     -57.5190    -9.2770    31.6720 C.3   1 SAM  -0.1525 
 13 HG1    -56.5713    -9.2363    32.2089 H     1 SAM   0.0800 
 14 HG2    -57.8529    -8.2641    31.4472 H     1 SAM   0.0800 
 15 SD     -57.2100   -10.1420    30.0480 S.3   1 SAM   0.9775 
 16 CE     -55.5300    -9.4780    29.8790 C.3   1 SAM  -0.2325 
 17 HE1    -54.8400   -10.0807    30.4695 H     1 SAM   0.0800 
 18 HE2    -55.5089    -8.4480    30.2350 H     1 SAM   0.0800 
 19 HE3    -55.2318    -9.5064    28.8310 H     1 SAM   0.0800 
 20 C5'    -58.0550    -8.9200    28.9600 C.3   1 SAM  -0.1525 
 21 H5'1   -57.7452    -9.0770    27.9268 H     1 SAM   0.0800 
 22 H5'2   -57.7872    -7.9100    29.2701 H     1 SAM   0.0800 
 23 C4'    -59.5800    -9.1060    29.0740 C.3   1 SAM   0.2000 
 24 H4'    -59.8178    -9.0503    30.1363 H     1 SAM   0.0800 
 25 O4'    -60.1790    -8.1130    28.2780 O.3   1 SAM  -0.5600 
 26 C3'    -60.1090   -10.4450    28.5690 C.3   1 SAM   0.2000 
 27 H3'    -59.3133   -11.1709    28.4015 H     1 SAM   0.0800 
 28 O3'    -60.9800   -11.0370    29.5280 O.3   1 SAM  -0.6800 
 29 H3'    -61.3117   -11.8558    29.1524 H     1 SAM   0.4000 
 30 C2'    -60.8380   -10.1120    27.2940 C.3   1 SAM   0.2000 
 31 H2'    -60.2153   -10.2274    26.4069 H     1 SAM   0.0800 
 32 O2'    -61.9210   -10.9300    27.0120 O.3   1 SAM  -0.6800 
 33 H2'    -62.5236   -10.8812    27.7578 H     1 SAM   0.4000 
 34 C1'    -61.3090    -8.7120    27.6320 C.3   1 SAM   0.5691 
 35 H1'    -62.2206    -8.7451    28.2286 H     1 SAM   0.0800 
 36 OXT    -58.3710   -10.7560    35.8410 O.co2 1 SAM  -0.9000 
 37 N1     -64.5510    -5.3110    25.5980 N.2   1 SAM  -0.6610 
 38 C2     -64.6130    -5.9490    26.8110 C.2   1 SAM   0.6010 
 39 H2     -65.4433    -5.7181    27.4619 H     1 SAM   0.0600 
 40 N3     -63.6870    -6.8620    27.2500 N.2   1 SAM  -0.6610 
 41 C4     -62.6970    -7.1010    26.3540 C.2   1 SAM   0.5000 
 42 C5     -62.6260    -6.5090    25.0890 C.2   1 SAM   0.4500 
 43 C6     -63.5860    -5.5640    24.6850 C.2   1 SAM   0.6110 
 44 N6     -63.5450    -4.9560    23.4970 N.2   1 SAM  -0.2000 
 45 H62    -64.2565    -4.2834    23.2491 H     1 SAM   0.4000 
 46 H61    -62.8025    -5.1687    22.8462 H     1 SAM   0.4000 
 47 N7     -61.4940    -6.9700    24.4280 N.2   1 SAM  -0.6960 
 48 C8     -60.8890    -7.8380    25.2790 C.3   1 SAM   0.4551 
 49 H81    -59.8807    -7.4839    25.4936 H     1 SAM   0.0800 
 50 H82    -60.8368    -8.8205    24.8100 H     1 SAM   0.0800 
 51 N9     -61.5900    -7.9370    26.4530 N.pl3 1 SAM  -0.7882 
@<TRIPOS>BOND
  1   1   2  1   
  2   1   3  1   
  3   1   4  1   
  4   1   5  1   
  5   5   6  1   
  6   5   7  1   
  7   5   9  1   
  8   7   8  ar  
  9   7  36  ar  
 10   9  10  1   
 11   9  11  1   
 12   9  12  1   
 13  12  13  1   
 14  12  14  1   
 15  12  15  1   
 16  15  16  1   
 17  15  20  1   
 18  16  17  1   
 19  16  18  1   
 20  16  19  1   
 21  20  21  1   
 22  20  22  1   
 23  20  23  1   
 24  23  24  1   
 25  23  25  1   
 26  23  26  1   
 27  25  34  1   
 28  26  27  1   
 29  26  28  1   
 30  26  30  1   
 31  28  29  1   
 32  30  31  1   
 33  30  32  1   
 34  30  34  1   
 35  32  33  1   
 36  34  35  1   
 37  34  51  1   
 38  37  38  2   
 39  37  43  1   
 40  38  39  1   
 41  38  40  1   
 42  40  41  2   
 43  41  42  1   
 44  41  51  1   
 45  42  43  1   
 46  42  47  2   
 47  43  44  2   
 48  44  45  1   
 49  44  46  1   
 50  47  48  1   
 51  48  49  1   
 52  48  50  1   
 53  48  51  1   
@<TRIPOS>SUBSTRUCTURE
  1 SAM  25 GROUP 4 B **** 0

# MOE 2022.02 (io_trps.svl 2020.11)
