# created with PyMOL 2.4.0
@<TRIPOS>MOLECULE
temp
50 52 1                 
SMALL
USER_CHARGES
@<TRIPOS>ATOM
1	   N	-12.128	-28.274	13.092	N.4	1	SAM1	0.000	
2	  CA	-12.192	-26.814	13.012	C.3	1	SAM1	0.000	
3	   C	-12.013	-26.304	14.460	C.2	1	SAM1	0.000	
4	   O	-12.476	-26.877	15.449	O.co2	1	SAM1	0.000	
5	  CB	-13.448	-26.265	12.330	C.3	1	SAM1	0.000	
6	  CG	-14.787	-26.964	12.467	C.3	1	SAM1	0.000	
7	  SD	-16.154	-26.109	11.519	S.3	1	SAM1	0.000	
8	  CE	-17.402	-26.638	12.725	C.3	1	SAM1	0.000	
9	 C5'	-16.379	-27.396	10.268	C.3	1	SAM1	0.000	
10	 C4'	-15.265	-27.334	9.224	C.3	1	SAM1	0.000	
11	 O4'	-15.453	-28.377	8.268	O.3	1	SAM1	0.000	
12	 C3'	-15.260	-26.015	8.432	C.3	1	SAM1	0.000	
13	 O3'	-13.998	-25.382	8.331	O.3	1	SAM1	0.000	
14	 C2'	-15.748	-26.409	7.038	C.3	1	SAM1	0.000	
15	 O2'	-15.243	-25.708	5.920	O.3	1	SAM1	0.000	
16	 C1'	-15.185	-27.813	6.984	C.3	1	SAM1	0.000	
17	 OXT	-11.312	-25.316	14.693	O.co2	1	SAM1	0.000	
18	  N1	-14.332	-31.411	3.379	N.2	1	SAM1	0.000	
19	  C2	-13.445	-30.738	4.168	C.2	1	SAM1	0.000	
20	  N3	-13.799	-29.781	5.051	N.2	1	SAM1	0.000	
21	  C4	-15.132	-29.531	5.158	C.2	1	SAM1	0.000	
22	  C5	-16.088	-30.193	4.378	C.2	1	SAM1	0.000	
23	  C6	-15.667	-31.148	3.458	C.2	1	SAM1	0.000	
24	  N6	-16.557	-31.781	2.689	N.pl3	1	SAM1	0.000	
25	  N7	-17.344	-29.707	4.695	N.2	1	SAM1	0.000	
26	  C8	-17.170	-28.780	5.678	C.2	1	SAM1	0.000	
27	  N9	-15.821	-28.662	5.975	N.2	1	SAM1	0.000	
28	  HA	-11.401	-26.444	12.359	 H	1	SAM1	0.000	
29	 HB1	-13.228	-26.226	11.263	 H	1	SAM1	0.000	
30	 HB2	-13.588	-25.253	12.710	 H	1	SAM1	0.000	
31	 HG1	-15.059	-26.990	13.522	 H	1	SAM1	0.000	
32	 HG2	-14.688	-27.983	12.092	 H	1	SAM1	0.000	
33	 HE1	-17.403	-25.952	13.572	 H	1	SAM1	0.000	
34	 HE2	-17.168	-27.644	13.073	 H	1	SAM1	0.000	
35	 HE3	-18.385	-26.636	12.255	 H	1	SAM1	0.000	
36	  H1	-12.862	-28.610	13.698	 H	1	SAM1	0.000	
37	  H2	-11.231	-28.552	13.464	 H	1	SAM1	0.000	
38	  H2	-12.398	-30.986	4.081	 H	1	SAM1	0.000	
39	  H3	-12.247	-28.667	12.169	 H	1	SAM1	0.000	
40	  H8	-17.963	-28.222	6.154	 H	1	SAM1	0.000	
41	 H1'	-14.128	-27.763	6.723	 H	1	SAM1	0.000	
42	 H2'	-16.820	-26.232	6.951	 H	1	SAM1	0.000	
43	 H2'	-15.491	-24.786	6.019	 H	1	SAM1	0.000	
44	 H3'	-15.884	-25.283	8.945	 H	1	SAM1	0.000	
45	 H3'	-14.118	-24.574	7.826	 H	1	SAM1	0.000	
46	 H4'	-14.328	-27.428	9.772	 H	1	SAM1	0.000	
47	 H61	-17.540	-31.567	2.774	 H	1	SAM1	0.000	
48	 H62	-16.247	-32.473	2.023	 H	1	SAM1	0.000	
49	H5'1	-17.340	-27.252	9.775	 H	1	SAM1	0.000	
50	H5'2	-16.362	-28.372	10.752	 H	1	SAM1	0.000	
@<TRIPOS>BOND
1 1 2 1
2 1 36 1
3 1 37 1
4 1 39 1
5 2 3 1
6 2 5 1
7 2 28 1
8 3 4 ar
9 3 17 ar
10 5 6 1
11 5 29 1
12 5 30 1
13 6 7 1
14 6 31 1
15 6 32 1
16 7 8 1
17 7 9 1
18 8 33 1
19 8 34 1
20 8 35 1
21 9 10 1
22 9 49 1
23 9 50 1
24 10 11 1
25 10 12 1
26 10 46 1
27 11 16 1
28 12 13 1
29 12 14 1
30 12 44 1
31 13 45 1
32 14 15 1
33 14 16 1
34 14 42 1
35 15 43 1
36 16 27 1
37 16 41 1
38 18 19 ar
39 18 23 ar
40 19 20 ar
41 19 38 1
42 20 21 ar
43 21 22 ar
44 21 27 ar
45 22 23 ar
46 22 25 ar
47 23 24 1
48 24 47 1
49 24 48 1
50 25 26 ar
51 26 27 ar
52 26 40 1
@<TRIPOS>SUBSTRUCTURE
1	SAM1	1	GROUP	1 A	SAM
