# created with PyMOL 2.5.0
@<TRIPOS>MOLECULE
6IX8
27 29 1                 
SMALL
USER_CHARGES
@<TRIPOS>ATOM
1	   N	-12.128	-28.274	13.092	N.3	1	SAM401	0.000	
2	  CA	-12.192	-26.814	13.012	C.3	1	SAM401	0.000	
3	   C	-12.013	-26.304	14.460	C.2	1	SAM401	0.000	
4	   O	-12.476	-26.877	15.449	O.co2	1	SAM401	0.000	
5	  CB	-13.448	-26.265	12.330	C.3	1	SAM401	0.000	
6	  CG	-14.787	-26.964	12.467	C.3	1	SAM401	0.000	
7	  SD	-16.154	-26.109	11.519	S.3	1	SAM401	0.000	
8	  CE	-17.402	-26.638	12.725	C.3	1	SAM401	0.000	
9	 C5'	-16.379	-27.396	10.268	C.3	1	SAM401	0.000	
10	 C4'	-15.265	-27.334	9.224	C.3	1	SAM401	0.000	
11	 O4'	-15.453	-28.377	8.268	O.3	1	SAM401	0.000	
12	 C3'	-15.260	-26.015	8.432	C.3	1	SAM401	0.000	
13	 O3'	-13.998	-25.382	8.331	O.3	1	SAM401	0.000	
14	 C2'	-15.748	-26.409	7.038	C.3	1	SAM401	0.000	
15	 O2'	-15.243	-25.708	5.920	O.3	1	SAM401	0.000	
16	 C1'	-15.185	-27.813	6.984	C.3	1	SAM401	0.000	
17	 OXT	-11.312	-25.316	14.693	O.co2	1	SAM401	0.000	
18	  N1	-14.332	-31.411	3.379	N.2	1	SAM401	0.000	
19	  C2	-13.445	-30.738	4.168	C.2	1	SAM401	0.000	
20	  N3	-13.799	-29.781	5.051	N.2	1	SAM401	0.000	
21	  C4	-15.132	-29.531	5.158	C.2	1	SAM401	0.000	
22	  C5	-16.088	-30.193	4.378	C.2	1	SAM401	0.000	
23	  C6	-15.667	-31.148	3.458	C.2	1	SAM401	0.000	
24	  N6	-16.557	-31.781	2.689	N.pl3	1	SAM401	0.000	
25	  N7	-17.344	-29.707	4.695	N.2	1	SAM401	0.000	
26	  C8	-17.170	-28.780	5.678	C.2	1	SAM401	0.000	
27	  N9	-15.821	-28.662	5.975	N.2	1	SAM401	0.000	
@<TRIPOS>BOND
1 1 2 1
2 2 3 1
3 2 5 1
4 3 4 ar
5 3 17 ar
6 5 6 1
7 6 7 1
8 7 8 1
9 7 9 1
10 9 10 1
11 10 11 1
12 10 12 1
13 11 16 1
14 12 13 1
15 12 14 1
16 14 15 1
17 14 16 1
18 16 27 1
19 18 19 ar
20 18 23 ar
21 19 20 ar
22 20 21 ar
23 21 22 ar
24 21 27 ar
25 22 23 ar
26 22 25 ar
27 23 24 1
28 25 26 ar
29 26 27 ar
@<TRIPOS>SUBSTRUCTURE
1	SAM401	1	GROUP	1 A	SAM
