# created with PyMOL 2.5.0
@<TRIPOS>MOLECULE
6IX8
27 29 1                 
SMALL
USER_CHARGES
@<TRIPOS>ATOM
1	   N	-59.002	-7.843	33.979	N.3	1	SAM401	0.000	
2	  CA	-58.950	-9.317	33.962	C.3	1	SAM401	0.000	
3	   C	-58.013	-9.816	35.097	C.2	1	SAM401	0.000	
4	   O	-56.953	-9.282	35.377	O.co2	1	SAM401	0.000	
5	  CB	-58.552	-9.907	32.606	C.3	1	SAM401	0.000	
6	  CG	-57.519	-9.277	31.672	C.3	1	SAM401	0.000	
7	  SD	-57.210	-10.142	30.048	S.3	1	SAM401	0.000	
8	  CE	-55.530	-9.478	29.879	C.3	1	SAM401	0.000	
9	 C5'	-58.055	-8.920	28.960	C.3	1	SAM401	0.000	
10	 C4'	-59.580	-9.106	29.074	C.3	1	SAM401	0.000	
11	 O4'	-60.179	-8.113	28.278	O.3	1	SAM401	0.000	
12	 C3'	-60.109	-10.445	28.569	C.3	1	SAM401	0.000	
13	 O3'	-60.980	-11.037	29.528	O.3	1	SAM401	0.000	
14	 C2'	-60.838	-10.112	27.294	C.3	1	SAM401	0.000	
15	 O2'	-61.921	-10.930	27.012	O.3	1	SAM401	0.000	
16	 C1'	-61.309	-8.712	27.632	C.3	1	SAM401	0.000	
17	 OXT	-58.371	-10.756	35.841	O.co2	1	SAM401	0.000	
18	  N1	-64.551	-5.311	25.598	N.2	1	SAM401	0.000	
19	  C2	-64.613	-5.949	26.811	C.2	1	SAM401	0.000	
20	  N3	-63.687	-6.862	27.250	N.2	1	SAM401	0.000	
21	  C4	-62.697	-7.101	26.354	C.2	1	SAM401	0.000	
22	  C5	-62.626	-6.509	25.089	C.2	1	SAM401	0.000	
23	  C6	-63.586	-5.564	24.685	C.2	1	SAM401	0.000	
24	  N6	-63.545	-4.956	23.497	N.pl3	1	SAM401	0.000	
25	  N7	-61.494	-6.970	24.428	N.2	1	SAM401	0.000	
26	  C8	-60.889	-7.838	25.279	C.2	1	SAM401	0.000	
27	  N9	-61.590	-7.937	26.453	N.2	1	SAM401	0.000	
@<TRIPOS>BOND
1 1 2 1
2 2 3 1
3 2 5 1
4 3 4 ar
5 3 17 ar
6 5 6 1
7 6 7 1
8 7 8 1
9 7 9 1
10 9 10 1
11 10 11 1
12 10 12 1
13 11 16 1
14 12 13 1
15 12 14 1
16 14 15 1
17 14 16 1
18 16 27 1
19 18 19 ar
20 18 23 ar
21 19 20 ar
22 20 21 ar
23 21 22 ar
24 21 27 ar
25 22 23 ar
26 22 25 ar
27 23 24 1
28 25 26 ar
29 26 27 ar
@<TRIPOS>SUBSTRUCTURE
1	SAM401	1	GROUP	1 B	SAM
