# created with PyMOL 2.4.0
@<TRIPOS>MOLECULE
temp
50 52 1                 
SMALL
USER_CHARGES
@<TRIPOS>ATOM
1	   N	-59.002	-7.843	33.979	N.4	1	SAM1	0.000	
2	  CA	-58.950	-9.317	33.962	C.3	1	SAM1	0.000	
3	   C	-58.013	-9.816	35.097	C.2	1	SAM1	0.000	
4	   O	-56.953	-9.282	35.377	O.co2	1	SAM1	0.000	
5	  CB	-58.552	-9.907	32.606	C.3	1	SAM1	0.000	
6	  CG	-57.519	-9.277	31.672	C.3	1	SAM1	0.000	
7	  SD	-57.210	-10.142	30.048	S.3	1	SAM1	0.000	
8	  CE	-55.530	-9.478	29.879	C.3	1	SAM1	0.000	
9	 C5'	-58.055	-8.920	28.960	C.3	1	SAM1	0.000	
10	 C4'	-59.580	-9.106	29.074	C.3	1	SAM1	0.000	
11	 O4'	-60.179	-8.113	28.278	O.3	1	SAM1	0.000	
12	 C3'	-60.109	-10.445	28.569	C.3	1	SAM1	0.000	
13	 O3'	-60.980	-11.037	29.528	O.3	1	SAM1	0.000	
14	 C2'	-60.838	-10.112	27.294	C.3	1	SAM1	0.000	
15	 O2'	-61.921	-10.930	27.012	O.3	1	SAM1	0.000	
16	 C1'	-61.309	-8.712	27.632	C.3	1	SAM1	0.000	
17	 OXT	-58.371	-10.756	35.841	O.co2	1	SAM1	0.000	
18	  N1	-64.551	-5.311	25.598	N.2	1	SAM1	0.000	
19	  C2	-64.613	-5.949	26.811	C.2	1	SAM1	0.000	
20	  N3	-63.687	-6.862	27.250	N.2	1	SAM1	0.000	
21	  C4	-62.697	-7.101	26.354	C.2	1	SAM1	0.000	
22	  C5	-62.626	-6.509	25.089	C.2	1	SAM1	0.000	
23	  C6	-63.586	-5.564	24.685	C.2	1	SAM1	0.000	
24	  N6	-63.545	-4.956	23.497	N.pl3	1	SAM1	0.000	
25	  N7	-61.494	-6.970	24.428	N.2	1	SAM1	0.000	
26	  C8	-60.889	-7.838	25.279	C.2	1	SAM1	0.000	
27	  N9	-61.590	-7.937	26.453	N.2	1	SAM1	0.000	
28	  HA	-59.964	-9.676	34.138	 H	1	SAM1	0.000	
29	 HB1	-59.474	-9.969	32.028	 H	1	SAM1	0.000	
30	 HB2	-58.187	-10.912	32.816	 H	1	SAM1	0.000	
31	 HG1	-56.571	-9.236	32.209	 H	1	SAM1	0.000	
32	 HG2	-57.853	-8.264	31.447	 H	1	SAM1	0.000	
33	 HE1	-54.840	-10.081	30.469	 H	1	SAM1	0.000	
34	 HE2	-55.509	-8.448	30.235	 H	1	SAM1	0.000	
35	 HE3	-55.232	-9.506	28.831	 H	1	SAM1	0.000	
36	  H1	-58.076	-7.472	33.819	 H	1	SAM1	0.000	
37	  H2	-59.340	-7.528	34.877	 H	1	SAM1	0.000	
38	  H2	-65.443	-5.718	27.462	 H	1	SAM1	0.000	
39	  H3	-59.625	-7.520	33.253	 H	1	SAM1	0.000	
40	  H8	-59.979	-8.377	25.061	 H	1	SAM1	0.000	
41	 H1'	-62.221	-8.745	28.229	 H	1	SAM1	0.000	
42	 H2'	-60.215	-10.227	26.407	 H	1	SAM1	0.000	
43	 H2'	-61.587	-11.823	26.892	 H	1	SAM1	0.000	
44	 H3'	-59.313	-11.171	28.402	 H	1	SAM1	0.000	
45	 H3'	-61.312	-11.856	29.152	 H	1	SAM1	0.000	
46	 H4'	-59.818	-9.050	30.136	 H	1	SAM1	0.000	
47	 H61	-62.803	-5.169	22.846	 H	1	SAM1	0.000	
48	 H62	-64.257	-4.283	23.249	 H	1	SAM1	0.000	
49	H5'1	-57.745	-9.077	27.927	 H	1	SAM1	0.000	
50	H5'2	-57.787	-7.910	29.270	 H	1	SAM1	0.000	
@<TRIPOS>BOND
1 1 2 1
2 1 36 1
3 1 37 1
4 1 39 1
5 2 3 1
6 2 5 1
7 2 28 1
8 3 4 ar
9 3 17 ar
10 5 6 1
11 5 29 1
12 5 30 1
13 6 7 1
14 6 31 1
15 6 32 1
16 7 8 1
17 7 9 1
18 8 33 1
19 8 34 1
20 8 35 1
21 9 10 1
22 9 49 1
23 9 50 1
24 10 11 1
25 10 12 1
26 10 46 1
27 11 16 1
28 12 13 1
29 12 14 1
30 12 44 1
31 13 45 1
32 14 15 1
33 14 16 1
34 14 42 1
35 15 43 1
36 16 27 1
37 16 41 1
38 18 19 ar
39 18 23 ar
40 19 20 ar
41 19 38 1
42 20 21 ar
43 21 22 ar
44 21 27 ar
45 22 23 ar
46 22 25 ar
47 23 24 1
48 24 47 1
49 24 48 1
50 25 26 ar
51 26 27 ar
52 26 40 1
@<TRIPOS>SUBSTRUCTURE
1	SAM1	1	GROUP	1 B	SAM
