# created with PyMOL 2.5.0
@<TRIPOS>MOLECULE
4FAK
27 29 1                 
SMALL
USER_CHARGES
@<TRIPOS>ATOM
1	   N	-3.623	-7.080	-0.952	N.3	1	SAM201	0.000	
2	  CA	-4.707	-7.680	-0.100	C.3	1	SAM201	0.000	
3	   C	-5.394	-6.546	0.755	C.2	1	SAM201	0.000	
4	   O	-4.822	-5.404	0.491	O.co2	1	SAM201	0.000	
5	  CB	-4.111	-8.818	0.811	C.3	1	SAM201	0.000	
6	  CG	-5.128	-9.542	1.727	C.3	1	SAM201	0.000	
7	  SD	-4.649	-10.892	2.911	S.3	1	SAM201	0.000	
8	  CE	-3.302	-11.883	2.100	C.3	1	SAM201	0.000	
9	 C5'	-6.077	-11.994	3.111	C.3	1	SAM201	0.000	
10	 C4'	-7.057	-11.548	4.198	C.3	1	SAM201	0.000	
11	 O4'	-6.495	-11.698	5.457	O.3	1	SAM201	0.000	
12	 C3'	-7.427	-10.070	4.109	C.3	1	SAM201	0.000	
13	 O3'	-8.525	-9.953	3.284	O.3	1	SAM201	0.000	
14	 C2'	-7.726	-9.703	5.566	C.3	1	SAM201	0.000	
15	 O2'	-9.050	-9.948	5.884	O.3	1	SAM201	0.000	
16	 C1'	-6.814	-10.649	6.346	C.3	1	SAM201	0.000	
17	 OXT	-6.447	-6.842	1.628	O.co2	1	SAM201	0.000	
18	  N1	-4.981	-6.904	9.463	N.2	1	SAM201	0.000	
19	  C2	-6.268	-7.256	9.256	C.2	1	SAM201	0.000	
20	  N3	-6.531	-8.241	8.373	N.2	1	SAM201	0.000	
21	  C4	-5.537	-8.902	7.695	C.2	1	SAM201	0.000	
22	  C5	-4.199	-8.561	7.890	C.2	1	SAM201	0.000	
23	  C6	-3.922	-7.514	8.801	C.2	1	SAM201	0.000	
24	  N6	-2.668	-7.074	9.077	N.pl3	1	SAM201	0.000	
25	  N7	-3.451	-9.354	7.106	N.2	1	SAM201	0.000	
26	  C8	-4.263	-10.172	6.476	C.2	1	SAM201	0.000	
27	  N9	-5.570	-9.914	6.837	N.2	1	SAM201	0.000	
@<TRIPOS>BOND
1 1 2 1
2 2 3 1
3 2 5 1
4 3 4 2
5 3 17 1
6 5 6 1
7 6 7 1
8 7 8 1
9 7 9 1
10 9 10 1
11 10 11 1
12 10 12 1
13 11 16 1
14 12 13 1
15 12 14 1
16 14 15 1
17 14 16 1
18 16 27 1
19 18 19 ar
20 18 23 ar
21 19 20 ar
22 20 21 ar
23 21 22 ar
24 21 27 ar
25 22 23 ar
26 22 25 ar
27 23 24 1
28 25 26 ar
29 26 27 ar
@<TRIPOS>SUBSTRUCTURE
1	SAM201	1	GROUP	1 A	SAM
