@<TRIPOS>MOLECULE
4FAK.A
51 53 1 0 0 
SMALL
USER_CHARGES


@<TRIPOS>ATOM
  1 N       -3.6230    -7.0800    -0.9520 N.4   1 SAM  -0.8530 
  2 H1      -2.9209    -6.6619    -0.3584 H     1 SAM   0.4500 
  3 H2      -4.0203    -6.3725    -1.5534 H     1 SAM   0.4500 
  4 H3      -3.1997    -7.8027    -1.5165 H     1 SAM   0.4500 
  5 CA      -4.7070    -7.6800    -0.1000 C.3   1 SAM   0.3170 
  6 HA      -5.4683    -8.1332    -0.7350 H     1 SAM   0.0800 
  7 C       -5.3940    -6.5460     0.7550 C.2   1 SAM   0.9060 
  8 O       -4.8220    -5.4040     0.4910 O.co2 1 SAM  -0.9000 
  9 CB      -4.1110    -8.8180     0.8110 C.3   1 SAM  -0.1600 
 10 HB1     -3.3451    -8.3728     1.4461 H     1 SAM   0.0800 
 11 HB2     -3.6549    -9.5642     0.1605 H     1 SAM   0.0800 
 12 CG      -5.1280    -9.5420     1.7270 C.3   1 SAM  -0.1525 
 13 HG1     -5.8730    -9.9779     1.0614 H     1 SAM   0.0800 
 14 HG2     -5.5927    -8.7637     2.3324 H     1 SAM   0.0800 
 15 SD      -4.6490   -10.8920     2.9110 S.3   1 SAM   0.9775 
 16 CE      -3.3020   -11.8830     2.1000 C.3   1 SAM  -0.2325 
 17 HE1     -2.4221   -11.2548     1.9612 H     1 SAM   0.0800 
 18 HE2     -3.6484   -12.2423     1.1310 H     1 SAM   0.0800 
 19 HE3     -3.0455   -12.7331     2.7322 H     1 SAM   0.0800 
 20 C5'     -6.0770   -11.9940     3.1110 C.3   1 SAM  -0.1525 
 21 H5'1    -5.7102   -12.9881     3.3666 H     1 SAM   0.0800 
 22 H5'2    -6.6127   -12.0371     2.1627 H     1 SAM   0.0800 
 23 C4'     -7.0570   -11.5480     4.1980 C.3   1 SAM   0.2000 
 24 H4'     -7.9379   -12.1717     4.0456 H     1 SAM   0.0800 
 25 O4'     -6.4950   -11.6980     5.4570 O.3   1 SAM  -0.5600 
 26 C3'     -7.4270   -10.0700     4.1090 C.3   1 SAM   0.2000 
 27 H3'     -6.6637    -9.4140     3.6905 H     1 SAM   0.0800 
 28 O3'     -8.5250    -9.9530     3.2840 O.3   1 SAM  -0.6800 
 29 H3'     -8.7980    -9.0327     3.2929 H     1 SAM   0.4000 
 30 C2'     -7.7260    -9.7030     5.5660 C.3   1 SAM   0.2000 
 31 H2'     -7.5579    -8.6477     5.7808 H     1 SAM   0.0800 
 32 O2'     -9.0500    -9.9480     5.8840 O.3   1 SAM  -0.6800 
 33 H2'     -9.2253   -10.8744     5.7034 H     1 SAM   0.4000 
 34 C1'     -6.8140   -10.6490     6.3460 C.3   1 SAM   0.5691 
 35 H1'     -7.2995   -11.0397     7.2403 H     1 SAM   0.0800 
 36 OXT     -6.4470    -6.8420     1.6280 O.co2 1 SAM  -0.9000 
 37 N1      -4.9810    -6.9040     9.4630 N.2   1 SAM  -0.6610 
 38 C2      -6.2680    -7.2560     9.2560 C.2   1 SAM   0.6010 
 39 H2      -7.0683    -6.7603     9.7853 H     1 SAM   0.0600 
 40 N3      -6.5310    -8.2410     8.3730 N.2   1 SAM  -0.6610 
 41 C4      -5.5370    -8.9020     7.6950 C.2   1 SAM   0.5000 
 42 C5      -4.1990    -8.5610     7.8900 C.2   1 SAM   0.4500 
 43 C6      -3.9220    -7.5140     8.8010 C.2   1 SAM   0.6110 
 44 N6      -2.6680    -7.0740     9.0770 N.2   1 SAM  -0.2000 
 45 H62     -2.5305    -6.3220     9.7371 H     1 SAM   0.4000 
 46 H61     -1.8723    -7.4986     8.6223 H     1 SAM   0.4000 
 47 N7      -3.4510    -9.3540     7.1060 N.2   1 SAM  -0.6960 
 48 C8      -4.2630   -10.1720     6.4760 C.3   1 SAM   0.4551 
 49 H81     -4.0131   -11.2003     6.7373 H     1 SAM   0.0800 
 50 H82     -4.1518   -10.0331     5.4006 H     1 SAM   0.0800 
 51 N9      -5.5700    -9.9140     6.8370 N.pl3 1 SAM  -0.7882 
@<TRIPOS>BOND
  1   1   2  1   
  2   1   3  1   
  3   1   4  1   
  4   1   5  1   
  5   5   6  1   
  6   5   7  1   
  7   5   9  1   
  8   7   8  ar  
  9   7  36  ar  
 10   9  10  1   
 11   9  11  1   
 12   9  12  1   
 13  12  13  1   
 14  12  14  1   
 15  12  15  1   
 16  15  16  1   
 17  15  20  1   
 18  16  17  1   
 19  16  18  1   
 20  16  19  1   
 21  20  21  1   
 22  20  22  1   
 23  20  23  1   
 24  23  24  1   
 25  23  25  1   
 26  23  26  1   
 27  25  34  1   
 28  26  27  1   
 29  26  28  1   
 30  26  30  1   
 31  28  29  1   
 32  30  31  1   
 33  30  32  1   
 34  30  34  1   
 35  32  33  1   
 36  34  35  1   
 37  34  51  1   
 38  37  38  2   
 39  37  43  1   
 40  38  39  1   
 41  38  40  1   
 42  40  41  2   
 43  41  42  1   
 44  41  51  1   
 45  42  43  1   
 46  42  47  2   
 47  43  44  2   
 48  44  45  1   
 49  44  46  1   
 50  47  48  1   
 51  48  49  1   
 52  48  50  1   
 53  48  51  1   
@<TRIPOS>SUBSTRUCTURE
  1 SAM  51 GROUP 4 A **** 0

# MOE 2022.02 (io_trps.svl 2020.11)
