# created with PyMOL 2.4.0
@<TRIPOS>MOLECULE
temp
50 52 1                 
SMALL
USER_CHARGES
@<TRIPOS>ATOM
1	   N	-3.623	-7.080	-0.952	N.4	1	SAM1	0.000	
2	  CA	-4.707	-7.680	-0.100	C.3	1	SAM1	0.000	
3	   C	-5.394	-6.546	0.755	C.2	1	SAM1	0.000	
4	   O	-4.822	-5.404	0.491	O.co2	1	SAM1	0.000	
5	  CB	-4.111	-8.818	0.811	C.3	1	SAM1	0.000	
6	  CG	-5.128	-9.542	1.727	C.3	1	SAM1	0.000	
7	  SD	-4.649	-10.892	2.911	S.3	1	SAM1	0.000	
8	  CE	-3.302	-11.883	2.100	C.3	1	SAM1	0.000	
9	 C5'	-6.077	-11.994	3.111	C.3	1	SAM1	0.000	
10	 C4'	-7.057	-11.548	4.198	C.3	1	SAM1	0.000	
11	 O4'	-6.495	-11.698	5.457	O.3	1	SAM1	0.000	
12	 C3'	-7.427	-10.070	4.109	C.3	1	SAM1	0.000	
13	 O3'	-8.525	-9.953	3.284	O.3	1	SAM1	0.000	
14	 C2'	-7.726	-9.703	5.566	C.3	1	SAM1	0.000	
15	 O2'	-9.050	-9.948	5.884	O.3	1	SAM1	0.000	
16	 C1'	-6.814	-10.649	6.346	C.3	1	SAM1	0.000	
17	 OXT	-6.447	-6.842	1.628	O.co2	1	SAM1	0.000	
18	  N1	-4.981	-6.904	9.463	N.2	1	SAM1	0.000	
19	  C2	-6.268	-7.256	9.256	C.2	1	SAM1	0.000	
20	  N3	-6.531	-8.241	8.373	N.2	1	SAM1	0.000	
21	  C4	-5.537	-8.902	7.695	C.2	1	SAM1	0.000	
22	  C5	-4.199	-8.561	7.890	C.2	1	SAM1	0.000	
23	  C6	-3.922	-7.514	8.801	C.2	1	SAM1	0.000	
24	  N6	-2.668	-7.074	9.077	N.pl3	1	SAM1	0.000	
25	  N7	-3.451	-9.354	7.106	N.2	1	SAM1	0.000	
26	  C8	-4.263	-10.172	6.476	C.2	1	SAM1	0.000	
27	  N9	-5.570	-9.914	6.837	N.2	1	SAM1	0.000	
28	  HA	-5.468	-8.133	-0.735	 H	1	SAM1	0.000	
29	 HB1	-3.345	-8.373	1.446	 H	1	SAM1	0.000	
30	 HB2	-3.655	-9.564	0.161	 H	1	SAM1	0.000	
31	 HG1	-5.873	-9.978	1.061	 H	1	SAM1	0.000	
32	 HG2	-5.593	-8.764	2.332	 H	1	SAM1	0.000	
33	 HE1	-2.422	-11.255	1.961	 H	1	SAM1	0.000	
34	 HE2	-3.648	-12.242	1.131	 H	1	SAM1	0.000	
35	 HE3	-3.046	-12.733	2.732	 H	1	SAM1	0.000	
36	  H1	-2.921	-6.662	-0.358	 H	1	SAM1	0.000	
37	  H2	-4.020	-6.372	-1.553	 H	1	SAM1	0.000	
38	  H2	-7.068	-6.760	9.785	 H	1	SAM1	0.000	
39	  H3	-3.200	-7.803	-1.516	 H	1	SAM1	0.000	
40	  H8	-3.953	-10.935	5.777	 H	1	SAM1	0.000	
41	 H1'	-7.299	-11.040	7.240	 H	1	SAM1	0.000	
42	 H2'	-7.558	-8.648	5.781	 H	1	SAM1	0.000	
43	 H2'	-9.591	-9.377	5.334	 H	1	SAM1	0.000	
44	 H3'	-6.664	-9.414	3.691	 H	1	SAM1	0.000	
45	 H3'	-8.798	-9.033	3.293	 H	1	SAM1	0.000	
46	 H4'	-7.938	-12.172	4.046	 H	1	SAM1	0.000	
47	 H61	-1.872	-7.499	8.622	 H	1	SAM1	0.000	
48	 H62	-2.530	-6.322	9.737	 H	1	SAM1	0.000	
49	H5'1	-5.710	-12.988	3.367	 H	1	SAM1	0.000	
50	H5'2	-6.613	-12.037	2.163	 H	1	SAM1	0.000	
@<TRIPOS>BOND
1 1 2 1
2 1 36 1
3 1 37 1
4 1 39 1
5 2 3 1
6 2 5 1
7 2 28 1
8 3 4 2
9 3 17 2
10 5 6 1
11 5 29 1
12 5 30 1
13 6 7 1
14 6 31 1
15 6 32 1
16 7 8 1
17 7 9 1
18 8 33 1
19 8 34 1
20 8 35 1
21 9 10 1
22 9 49 1
23 9 50 1
24 10 11 1
25 10 12 1
26 10 46 1
27 11 16 1
28 12 13 1
29 12 14 1
30 12 44 1
31 13 45 1
32 14 15 1
33 14 16 1
34 14 42 1
35 15 43 1
36 16 27 1
37 16 41 1
38 18 19 ar
39 18 23 ar
40 19 20 ar
41 19 38 1
42 20 21 ar
43 21 22 ar
44 21 27 ar
45 22 23 ar
46 22 25 ar
47 23 24 1
48 24 47 1
49 24 48 1
50 25 26 ar
51 26 27 ar
52 26 40 1
@<TRIPOS>SUBSTRUCTURE
1	SAM1	1	GROUP	1 A	SAM
