# created with PyMOL 2.5.0
@<TRIPOS>MOLECULE
6P7Z
21 23 1                 
SMALL
USER_CHARGES
@<TRIPOS>ATOM
1	 C01	16.935	3.107	-18.175	C.3	1	O41507	0.000	
2	 S02	18.459	2.432	-17.482	S.o2	1	O41507	0.000	
3	 O03	18.886	3.247	-16.387	O.2	1	O41507	0.000	
4	 O04	19.462	2.408	-18.503	O.2	1	O41507	0.000	
5	 N05	18.235	0.811	-16.881	N.3	1	O41507	0.000	
6	 C06	18.152	0.660	-15.417	C.3	1	O41507	0.000	
7	 C07	17.904	-0.764	-14.889	C.3	1	O41507	0.000	
8	 C08	18.783	-1.804	-15.609	C.3	1	O41507	0.000	
9	 C09	19.746	-1.179	-16.628	C.3	1	O41507	0.000	
10	 C10	18.949	-0.272	-17.579	C.3	1	O41507	0.000	
11	 N11	17.888	-2.702	-16.333	N.pl3	1	O41507	0.000	
12	 C12	17.327	-3.717	-15.696	C.2	1	O41507	0.000	
13	 O13	17.550	-3.910	-14.503	O.2	1	O41507	0.000	
14	 C14	16.426	-4.586	-16.465	C.2	1	O41507	0.000	
15	 C15	16.114	-6.011	-16.228	C.2	1	O41507	0.000	
16	 C16	15.247	-6.352	-17.193	C.2	1	O41507	0.000	
17	 O17	14.999	-5.254	-18.001	O.2	1	O41507	0.000	
18	 N18	15.744	-4.183	-17.516	N.2	1	O41507	0.000	
19	 C19	14.615	-7.695	-17.395	C.3	1	O41507	0.000	
20	 C20	14.494	-8.586	-16.206	C.3	1	O41507	0.000	
21	 C21	15.468	-8.907	-17.289	C.3	1	O41507	0.000	
@<TRIPOS>BOND
1 1 2 1
2 2 3 2
3 2 4 2
4 2 5 1
5 5 6 1
6 5 10 1
7 6 7 1
8 7 8 1
9 8 9 1
10 8 11 1
11 9 10 1
12 11 12 1
13 12 13 2
14 12 14 1
15 14 15 ar
16 14 18 ar
17 15 16 ar
18 16 17 ar
19 16 19 1
20 17 18 ar
21 19 20 1
22 19 21 1
23 20 21 1
@<TRIPOS>SUBSTRUCTURE
1	O41507	1	GROUP	1 A	O41
