@<TRIPOS>MOLECULE
6P7Z.A
40 42 1 0 0 
SMALL
USER_CHARGES


@<TRIPOS>ATOM
  1 C01     16.9350     3.1070   -18.1750 C.3   1 O  -0.1348 
  2 H011    17.1178     4.1183   -18.5382 H     1 O   0.0800 
  3 H012    16.1649     3.1314   -17.4040 H     1 O   0.0800 
  4 H013    16.6021     2.4788   -19.0012 H     1 O   0.0800 
  5 S02     18.4590     2.4320   -17.4820 S.o2  1 O   1.3328 
  6 O03     18.8860     3.2470   -16.3870 O.2   1 O  -0.6500 
  7 O04     19.4620     2.4080   -18.5030 O.2   1 O  -0.6500 
  8 N05     18.2350     0.8110   -16.8810 N.am  1 O  -0.8494 
  9 C06     18.1520     0.6600   -15.4170 C.3   1 O   0.1957 
 10 H061    17.3364     1.2912   -15.0642 H     1 O   0.0800 
 11 H062    19.0928     1.0116   -14.9935 H     1 O   0.0800 
 12 C07     17.9040    -0.7640   -14.8890 C.3   1 O  -0.1600 
 13 H071    16.8560    -1.0201   -15.0444 H     1 O   0.0800 
 14 H072    18.1299    -0.7890   -13.8230 H     1 O   0.0800 
 15 C08     18.7830    -1.8040   -15.6090 C.3   1 O   0.2201 
 16 H08     19.3873    -2.3115   -14.8571 H     1 O   0.0800 
 17 C09     19.7460    -1.1790   -16.6280 C.3   1 O  -0.1600 
 18 H091    20.2354    -1.9676   -17.1996 H     1 O   0.0800 
 19 H092    20.4986    -0.5887   -16.1052 H     1 O   0.0800 
 20 C10     18.9490    -0.2720   -17.5790 C.3   1 O   0.1957 
 21 H101    19.6403     0.1730   -18.2947 H     1 O   0.0800 
 22 H102    18.2191    -0.8826   -18.1104 H     1 O   0.0800 
 23 N11     17.8880    -2.7020   -16.3330 N.am  1 O  -0.7301 
 24 H11     17.6984    -2.5495   -17.3133 H     1 O   0.3700 
 25 C12     17.3270    -3.7170   -15.6960 C.2   1 O   0.7160 
 26 O13     17.5500    -3.9100   -14.5030 O.2   1 O  -0.5700 
 27 C14     16.4260    -4.5860   -16.4650 C.2   1 O   0.2028 
 28 C15     16.1140    -6.0110   -16.2280 C.2   1 O  -0.1500 
 29 H15     16.5020    -6.6440   -15.4437 H     1 O   0.1500 
 30 C16     15.2470    -6.3520   -17.1930 C.2   1 O   0.0550 
 31 O17     14.9990    -5.2540   -18.0010 O.3   1 O  -0.0191 
 32 N18     15.7440    -4.1830   -17.5160 N.2   1 O  -0.4097 
 33 C19     14.6150    -7.6950   -17.3950 C.3   1 O  -0.0150 
 34 H19     13.9288    -7.3073   -18.1479 H     1 O   0.1000 
 35 C20     14.4940    -8.5860   -16.2060 C.3   1 O  -0.2000 
 36 H201    13.6037    -9.2006   -16.0731 H     1 O   0.1000 
 37 H202    14.8514    -8.2490   -15.2330 H     1 O   0.1000 
 38 C21     15.4680    -8.9070   -17.2890 C.3   1 O  -0.2000 
 39 H211    16.5379    -8.8059   -17.1070 H     1 O   0.1000 
 40 H212    15.2902    -9.7576   -17.9471 H     1 O   0.1000 
@<TRIPOS>BOND
  1   1   2  1   
  2   1   3  1   
  3   1   4  1   
  4   1   5  1   
  5   5   6  2   
  6   5   7  2   
  7   5   8  am  
  8   8   9  1   
  9   8  20  1   
 10   9  10  1   
 11   9  11  1   
 12   9  12  1   
 13  12  13  1   
 14  12  14  1   
 15  12  15  1   
 16  15  16  1   
 17  15  17  1   
 18  15  23  1   
 19  17  18  1   
 20  17  19  1   
 21  17  20  1   
 22  20  21  1   
 23  20  22  1   
 24  23  24  1   
 25  23  25  am  
 26  25  26  2   
 27  25  27  1   
 28  27  28  1   
 29  27  32  2   
 30  28  29  1   
 31  28  30  2   
 32  30  31  1   
 33  30  33  1   
 34  31  32  1   
 35  33  34  1   
 36  33  35  1   
 37  33  38  1   
 38  35  36  1   
 39  35  37  1   
 40  35  38  1   
 41  38  39  1   
 42  38  40  1   
@<TRIPOS>SUBSTRUCTURE
  1 O  23 GROUP 4 A **** 0

# MOE 2022.02 (io_trps.svl 2020.11)
