# created with PyMOL 2.5.0
@<TRIPOS>MOLECULE
6P7Z
27 29 1                 
SMALL
USER_CHARGES
@<TRIPOS>ATOM
1	   N	11.122	-14.668	-23.047	N.3	1	SAM506	0.000	
2	  CA	10.958	-14.584	-21.592	C.3	1	SAM506	0.000	
3	   C	10.003	-15.639	-21.062	C.2	1	SAM506	0.000	
4	   O	9.669	-15.610	-19.868	O.co2	1	SAM506	0.000	
5	  CB	10.561	-13.167	-21.178	C.3	1	SAM506	0.000	
6	  CG	11.768	-12.239	-21.022	C.3	1	SAM506	0.000	
7	  SD	12.772	-12.725	-19.585	S.3	1	SAM506	0.000	
8	  CE	12.926	-11.177	-18.658	C.3	1	SAM506	0.000	
9	 C5'	14.446	-12.855	-20.278	C.3	1	SAM506	0.000	
10	 C4'	14.693	-14.085	-21.142	C.3	1	SAM506	0.000	
11	 O4'	13.967	-13.951	-22.353	O.3	1	SAM506	0.000	
12	 C3'	16.142	-14.231	-21.574	C.3	1	SAM506	0.000	
13	 O3'	16.893	-14.827	-20.543	O.3	1	SAM506	0.000	
14	 C2'	15.993	-15.054	-22.831	C.3	1	SAM506	0.000	
15	 O2'	15.663	-16.388	-22.474	O.3	1	SAM506	0.000	
16	 C1'	14.759	-14.421	-23.434	C.3	1	SAM506	0.000	
17	 OXT	9.600	-16.508	-21.855	O.co2	1	SAM506	0.000	
18	  N1	16.381	-12.843	-28.099	N.2	1	SAM506	0.000	
19	  C2	16.290	-14.118	-27.590	C.2	1	SAM506	0.000	
20	  N3	15.852	-14.366	-26.318	N.2	1	SAM506	0.000	
21	  C4	15.501	-13.295	-25.578	C.2	1	SAM506	0.000	
22	  C5	15.578	-11.979	-26.033	C.2	1	SAM506	0.000	
23	  C6	16.041	-11.755	-27.333	C.2	1	SAM506	0.000	
24	  N6	16.153	-10.545	-27.893	N.pl3	1	SAM506	0.000	
25	  N7	15.170	-11.157	-25.030	N.2	1	SAM506	0.000	
26	  C8	14.841	-11.934	-23.982	C.2	1	SAM506	0.000	
27	  N9	15.045	-13.258	-24.302	N.2	1	SAM506	0.000	
@<TRIPOS>BOND
1 1 2 1
2 2 3 1
3 2 5 1
4 3 4 ar
5 3 17 ar
6 5 6 1
7 6 7 1
8 7 8 1
9 7 9 1
10 9 10 1
11 10 11 1
12 10 12 1
13 11 16 1
14 12 13 1
15 12 14 1
16 14 15 1
17 14 16 1
18 16 27 1
19 18 19 ar
20 18 23 ar
21 19 20 ar
22 20 21 ar
23 21 22 ar
24 21 27 ar
25 22 23 ar
26 22 25 ar
27 23 24 1
28 25 26 ar
29 26 27 ar
@<TRIPOS>SUBSTRUCTURE
1	SAM506	1	GROUP	1 A	SAM
