@<TRIPOS>MOLECULE
6P7Z.A
51 53 1 0 0 
SMALL
USER_CHARGES


@<TRIPOS>ATOM
  1 N       11.1220   -14.6680   -23.0470 N.4   1 SAM  -0.8530 
  2 H1      10.2398   -14.4702   -23.4972 H     1 SAM   0.4500 
  3 H2      11.4273   -15.5974   -23.2983 H     1 SAM   0.4500 
  4 H3      11.8119   -13.9943   -23.3475 H     1 SAM   0.4500 
  5 CA      10.9580   -14.5840   -21.5920 C.3   1 SAM   0.3170 
  6 HA      11.9213   -14.8009   -21.1304 H     1 SAM   0.0800 
  7 C       10.0030   -15.6390   -21.0620 C.2   1 SAM   0.9060 
  8 O        9.6690   -15.6100   -19.8680 O.co2 1 SAM  -0.9000 
  9 CB      10.5610   -13.1670   -21.1780 C.3   1 SAM  -0.1600 
 10 HB1     10.0334   -13.2166   -20.2255 H     1 SAM   0.0800 
 11 HB2      9.8990   -12.7536   -21.9389 H     1 SAM   0.0800 
 12 CG      11.7680   -12.2390   -21.0220 C.3   1 SAM  -0.1525 
 13 HG1     11.4174   -11.2162   -20.8840 H     1 SAM   0.0800 
 14 HG2     12.3807   -12.2947   -21.9218 H     1 SAM   0.0800 
 15 SD      12.7720   -12.7250   -19.5850 S.3   1 SAM   0.9775 
 16 CE      12.9260   -11.1770   -18.6580 C.3   1 SAM  -0.2325 
 17 HE1     11.9786   -10.9507   -18.1688 H     1 SAM   0.0800 
 18 HE2     13.1842   -10.3683   -19.3416 H     1 SAM   0.0800 
 19 HE3     13.7079   -11.2803   -17.9056 H     1 SAM   0.0800 
 20 C5'     14.4460   -12.8550   -20.2780 C.3   1 SAM  -0.1525 
 21 H5'1    15.1539   -12.8764   -19.4495 H     1 SAM   0.0800 
 22 H5'2    14.6284   -11.9709   -20.8889 H     1 SAM   0.0800 
 23 C4'     14.6930   -14.0850   -21.1420 C.3   1 SAM   0.2000 
 24 H4'     14.3958   -14.9407   -20.5357 H     1 SAM   0.0800 
 25 O4'     13.9670   -13.9510   -22.3530 O.3   1 SAM  -0.5600 
 26 C3'     16.1420   -14.2310   -21.5740 C.3   1 SAM   0.2000 
 27 H3'     16.6905   -13.3094   -21.7685 H     1 SAM   0.0800 
 28 O3'     16.8930   -14.8270   -20.5430 O.3   1 SAM  -0.6800 
 29 H3'     17.7806   -14.9737   -20.8780 H     1 SAM   0.4000 
 30 C2'     15.9930   -15.0540   -22.8310 C.3   1 SAM   0.2000 
 31 H2'     16.8767   -15.0764   -23.4687 H     1 SAM   0.0800 
 32 O2'     15.6630   -16.3880   -22.4740 O.3   1 SAM  -0.6800 
 33 H2'     16.4146   -16.7572   -22.0045 H     1 SAM   0.4000 
 34 C1'     14.7590   -14.4210   -23.4340 C.3   1 SAM   0.5691 
 35 H1'     14.2717   -15.1748   -24.0524 H     1 SAM   0.0800 
 36 OXT      9.6000   -16.5080   -21.8550 O.co2 1 SAM  -0.9000 
 37 N1      16.3810   -12.8430   -28.0990 N.2   1 SAM  -0.6610 
 38 C2      16.2900   -14.1180   -27.5900 C.2   1 SAM   0.6010 
 39 H2      16.5739   -14.9511   -28.2158 H     1 SAM   0.0600 
 40 N3      15.8520   -14.3660   -26.3180 N.2   1 SAM  -0.6610 
 41 C4      15.5010   -13.2950   -25.5780 C.2   1 SAM   0.5000 
 42 C5      15.5780   -11.9790   -26.0330 C.2   1 SAM   0.4500 
 43 C6      16.0410   -11.7550   -27.3330 C.2   1 SAM   0.6110 
 44 N6      16.1530   -10.5450   -27.8930 N.2   1 SAM  -0.2000 
 45 H62     16.4957   -10.4561   -28.8389 H     1 SAM   0.4000 
 46 H61     15.8948    -9.7205   -27.3698 H     1 SAM   0.4000 
 47 N7      15.1700   -11.1570   -25.0300 N.2   1 SAM  -0.6960 
 48 C8      14.8410   -11.9340   -23.9820 C.3   1 SAM   0.4551 
 49 H81     13.7913   -11.7795   -23.7321 H     1 SAM   0.0800 
 50 H82     15.4612   -11.6687   -23.1258 H     1 SAM   0.0800 
 51 N9      15.0450   -13.2580   -24.3020 N.pl3 1 SAM  -0.7882 
@<TRIPOS>BOND
  1   1   2  1   
  2   1   3  1   
  3   1   4  1   
  4   1   5  1   
  5   5   6  1   
  6   5   7  1   
  7   5   9  1   
  8   7   8  ar  
  9   7  36  ar  
 10   9  10  1   
 11   9  11  1   
 12   9  12  1   
 13  12  13  1   
 14  12  14  1   
 15  12  15  1   
 16  15  16  1   
 17  15  20  1   
 18  16  17  1   
 19  16  18  1   
 20  16  19  1   
 21  20  21  1   
 22  20  22  1   
 23  20  23  1   
 24  23  24  1   
 25  23  25  1   
 26  23  26  1   
 27  25  34  1   
 28  26  27  1   
 29  26  28  1   
 30  26  30  1   
 31  28  29  1   
 32  30  31  1   
 33  30  32  1   
 34  30  34  1   
 35  32  33  1   
 36  34  35  1   
 37  34  51  1   
 38  37  38  2   
 39  37  43  1   
 40  38  39  1   
 41  38  40  1   
 42  40  41  2   
 43  41  42  1   
 44  41  51  1   
 45  42  43  1   
 46  42  47  2   
 47  43  44  2   
 48  44  45  1   
 49  44  46  1   
 50  47  48  1   
 51  48  49  1   
 52  48  50  1   
 53  48  51  1   
@<TRIPOS>SUBSTRUCTURE
  1 SAM  25 GROUP 4 A **** 0

# MOE 2022.02 (io_trps.svl 2020.11)
