# created with PyMOL 2.4.0
@<TRIPOS>MOLECULE
temp
50 52 1                 
SMALL
USER_CHARGES
@<TRIPOS>ATOM
1	   N	11.122	-14.668	-23.047	N.4	1	SAM1	0.000	
2	  CA	10.958	-14.584	-21.592	C.3	1	SAM1	0.000	
3	   C	10.003	-15.639	-21.062	C.2	1	SAM1	0.000	
4	   O	9.669	-15.610	-19.868	O.co2	1	SAM1	0.000	
5	  CB	10.561	-13.167	-21.178	C.3	1	SAM1	0.000	
6	  CG	11.768	-12.239	-21.022	C.3	1	SAM1	0.000	
7	  SD	12.772	-12.725	-19.585	S.3	1	SAM1	0.000	
8	  CE	12.926	-11.177	-18.658	C.3	1	SAM1	0.000	
9	 C5'	14.446	-12.855	-20.278	C.3	1	SAM1	0.000	
10	 C4'	14.693	-14.085	-21.142	C.3	1	SAM1	0.000	
11	 O4'	13.967	-13.951	-22.353	O.3	1	SAM1	0.000	
12	 C3'	16.142	-14.231	-21.574	C.3	1	SAM1	0.000	
13	 O3'	16.893	-14.827	-20.543	O.3	1	SAM1	0.000	
14	 C2'	15.993	-15.054	-22.831	C.3	1	SAM1	0.000	
15	 O2'	15.663	-16.388	-22.474	O.3	1	SAM1	0.000	
16	 C1'	14.759	-14.421	-23.434	C.3	1	SAM1	0.000	
17	 OXT	9.600	-16.508	-21.855	O.co2	1	SAM1	0.000	
18	  N1	16.381	-12.843	-28.099	N.2	1	SAM1	0.000	
19	  C2	16.290	-14.118	-27.590	C.2	1	SAM1	0.000	
20	  N3	15.852	-14.366	-26.318	N.2	1	SAM1	0.000	
21	  C4	15.501	-13.295	-25.578	C.2	1	SAM1	0.000	
22	  C5	15.578	-11.979	-26.033	C.2	1	SAM1	0.000	
23	  C6	16.041	-11.755	-27.333	C.2	1	SAM1	0.000	
24	  N6	16.153	-10.545	-27.893	N.pl3	1	SAM1	0.000	
25	  N7	15.170	-11.157	-25.030	N.2	1	SAM1	0.000	
26	  C8	14.841	-11.934	-23.982	C.2	1	SAM1	0.000	
27	  N9	15.045	-13.258	-24.302	N.2	1	SAM1	0.000	
28	  HA	11.921	-14.801	-21.130	 H	1	SAM1	0.000	
29	 HB1	10.033	-13.217	-20.226	 H	1	SAM1	0.000	
30	 HB2	9.899	-12.754	-21.939	 H	1	SAM1	0.000	
31	 HG1	11.417	-11.216	-20.884	 H	1	SAM1	0.000	
32	 HG2	12.381	-12.295	-21.922	 H	1	SAM1	0.000	
33	 HE1	11.979	-10.951	-18.169	 H	1	SAM1	0.000	
34	 HE2	13.184	-10.368	-19.342	 H	1	SAM1	0.000	
35	 HE3	13.708	-11.280	-17.906	 H	1	SAM1	0.000	
36	  H1	10.240	-14.470	-23.497	 H	1	SAM1	0.000	
37	  H2	11.427	-15.597	-23.298	 H	1	SAM1	0.000	
38	  H2	16.574	-14.951	-28.216	 H	1	SAM1	0.000	
39	  H3	11.812	-13.994	-23.347	 H	1	SAM1	0.000	
40	  H8	14.472	-11.574	-23.033	 H	1	SAM1	0.000	
41	 H1'	14.272	-15.175	-24.052	 H	1	SAM1	0.000	
42	 H2'	16.877	-15.076	-23.469	 H	1	SAM1	0.000	
43	 H2'	16.415	-16.757	-22.004	 H	1	SAM1	0.000	
44	 H3'	16.691	-13.309	-21.768	 H	1	SAM1	0.000	
45	 H3'	17.781	-14.974	-20.878	 H	1	SAM1	0.000	
46	 H4'	14.396	-14.941	-20.536	 H	1	SAM1	0.000	
47	 H61	15.895	-9.720	-27.370	 H	1	SAM1	0.000	
48	 H62	16.496	-10.456	-28.839	 H	1	SAM1	0.000	
49	H5'1	15.154	-12.876	-19.449	 H	1	SAM1	0.000	
50	H5'2	14.628	-11.971	-20.889	 H	1	SAM1	0.000	
@<TRIPOS>BOND
1 1 2 1
2 1 36 1
3 1 37 1
4 1 39 1
5 2 3 1
6 2 5 1
7 2 28 1
8 3 4 ar
9 3 17 ar
10 5 6 1
11 5 29 1
12 5 30 1
13 6 7 1
14 6 31 1
15 6 32 1
16 7 8 1
17 7 9 1
18 8 33 1
19 8 34 1
20 8 35 1
21 9 10 1
22 9 49 1
23 9 50 1
24 10 11 1
25 10 12 1
26 10 46 1
27 11 16 1
28 12 13 1
29 12 14 1
30 12 44 1
31 13 45 1
32 14 15 1
33 14 16 1
34 14 42 1
35 15 43 1
36 16 27 1
37 16 41 1
38 18 19 ar
39 18 23 ar
40 19 20 ar
41 19 38 1
42 20 21 ar
43 21 22 ar
44 21 27 ar
45 22 23 ar
46 22 25 ar
47 23 24 1
48 24 47 1
49 24 48 1
50 25 26 ar
51 26 27 ar
52 26 40 1
@<TRIPOS>SUBSTRUCTURE
1	SAM1	1	GROUP	1 A	SAM
