@<TRIPOS>MOLECULE
6I3C.A
17 17 1 0 0 
SMALL
USER_CHARGES


@<TRIPOS>ATOM
  1 C1       1.9720    -7.5390     3.5390 C.ar  1 DNC   0.0825 
  2 N1       2.7720    -4.1800     1.9350 N.pl3 1 DNC   0.9070 
  3 O1       1.4150    -8.0080     4.7330 O.3   1 DNC  -0.5325 
  4 H1       1.1954    -7.3272     5.3732 H     1 DNC   0.4500 
  5 C2       2.1070    -6.1280     3.4350 C.ar  1 DNC  -0.1710 
  6 N2       3.2920    -8.7050     0.2130 N.pl3 1 DNC   0.9070 
  7 O2       1.7840    -5.4060     4.4950 O.3   1 DNC  -0.8290 
  8 C3       2.6150    -5.6000     2.1760 C.ar  1 DNC   0.1330 
  9 O3       2.3740    -3.3480     2.7740 O.2   1 DNC  -0.5200 
 10 C4       2.9990    -6.4590     1.1570 C.ar  1 DNC  -0.1500 
 11 H4       3.4103    -6.0644     0.2397 H     1 DNC   0.1500 
 12 O4       3.3670    -3.8230     0.9070 O.2   1 DNC  -0.5200 
 13 C5       2.8510    -7.8320     1.3240 C.ar  1 DNC   0.1330 
 14 O5       3.7110    -8.2030    -0.7930 O.2   1 DNC  -0.5200 
 15 C6       2.3440    -8.3940     2.5130 C.ar  1 DNC  -0.1500 
 16 H6       2.2477    -9.4641     2.6221 H     1 DNC   0.1500 
 17 O6       3.2900    -9.9340     0.4090 O.2   1 DNC  -0.5200 
@<TRIPOS>BOND
  1   1   3  1   
  2   1   5  ar  
  3   1  15  ar  
  4   2   8  1   
  5   2   9  2   
  6   2  12  2   
  7   3   4  1   
  8   5   7  1   
  9   5   8  ar  
 10   6  13  1   
 11   6  14  2   
 12   6  17  2   
 13   8  10  ar  
 14  10  11  1   
 15  10  13  ar  
 16  13  15  ar  
 17  15  16  1   
@<TRIPOS>SUBSTRUCTURE
  1 DNC  10 GROUP 4 A **** 0

# MOE 2022.02 (io_trps.svl 2020.11)
