# created with PyMOL 2.5.2
@<TRIPOS>MOLECULE
for_leap
17 17 1                 
SMALL
USER_CHARGES
@<TRIPOS>ATOM
1	  C1	1.972	-7.539	3.539	C.2	1	DNC1	0.000	
2	  N1	2.772	-4.180	1.935	N.pl3	1	DNC1	0.000	
3	  O1	1.415	-8.008	4.733	O.3	1	DNC1	0.000	
4	  C2	2.107	-6.128	3.435	C.2	1	DNC1	0.000	
5	  N2	3.292	-8.705	0.213	N.pl3	1	DNC1	0.000	
6	  O2	1.784	-5.406	4.495	O.2	1	DNC1	0.000	
7	  C3	2.615	-5.600	2.176	C.2	1	DNC1	0.000	
8	  O3	2.374	-3.348	2.774	O.2	1	DNC1	0.000	
9	  C4	2.999	-6.459	1.157	C.2	1	DNC1	0.000	
10	  O4	3.367	-3.823	0.907	O.3	1	DNC1	0.000	
11	  C5	2.851	-7.832	1.324	C.2	1	DNC1	0.000	
12	  O5	3.711	-8.203	-0.793	O.2	1	DNC1	0.000	
13	  C6	2.344	-8.394	2.513	C.2	1	DNC1	0.000	
14	  O6	3.290	-9.934	0.409	O.2	1	DNC1	0.000	
15	 H01	1.390	-7.296	5.377	 H	1	DNC1	0.000	
16	  H4	3.410	-6.064	0.240	 H	1	DNC1	0.000	
17	  H6	2.248	-9.464	2.622	 H	1	DNC1	0.000	
@<TRIPOS>BOND
1 1 3 1
2 1 4 ar
3 1 13 ar
4 2 7 1
5 2 8 ar
6 2 10 1
7 3 15 1
8 4 6 1
9 4 7 ar
10 5 11 1
11 5 12 ar
12 5 14 ar
13 7 9 ar
14 9 11 ar
15 9 16 1
16 11 13 ar
17 13 17 1
@<TRIPOS>SUBSTRUCTURE
1	DNC1	1	GROUP	1 A	DNC
