# created with PyMOL 2.5.0
@<TRIPOS>MOLECULE
6I3C
27 29 1                 
SMALL
USER_CHARGES
@<TRIPOS>ATOM
1	   N	-3.038	-3.231	8.426	N.3	1	SAM302	0.000	
2	  CA	-4.016	-3.661	7.374	C.3	1	SAM302	0.000	
3	   C	-4.593	-5.066	7.724	C.2	1	SAM302	0.000	
4	   O	-3.837	-5.866	8.282	O.co2	1	SAM302	0.000	
5	  CB	-3.268	-3.858	5.979	C.3	1	SAM302	0.000	
6	  CG	-2.589	-2.541	5.497	C.3	1	SAM302	0.000	
7	  SD	-1.903	-2.757	3.824	S.3	1	SAM302	0.000	
8	  CE	-0.602	-3.934	4.149	C.3	1	SAM302	0.000	
9	 C5'	-0.846	-1.228	3.643	C.3	1	SAM302	0.000	
10	 C4'	-1.609	0.069	3.483	C.3	1	SAM302	0.000	
11	 O4'	-0.763	1.174	3.770	O.3	1	SAM302	0.000	
12	 C3'	-2.246	0.322	2.071	C.3	1	SAM302	0.000	
13	 O3'	-3.697	0.426	2.208	O.3	1	SAM302	0.000	
14	 C2'	-1.596	1.686	1.651	C.3	1	SAM302	0.000	
15	 O2'	-2.385	2.541	0.852	O.3	1	SAM302	0.000	
16	 C1'	-1.285	2.321	3.020	C.3	1	SAM302	0.000	
17	 OXT	-5.801	-5.243	7.447	O.co2	1	SAM302	0.000	
18	  N1	0.500	6.567	5.323	N.2	1	SAM302	0.000	
19	  C2	-0.680	5.858	5.427	C.2	1	SAM302	0.000	
20	  N3	-1.066	4.759	4.753	N.2	1	SAM302	0.000	
21	  C4	-0.128	4.364	3.867	C.2	1	SAM302	0.000	
22	  C5	1.101	5.000	3.625	C.2	1	SAM302	0.000	
23	  C6	1.415	6.152	4.382	C.2	1	SAM302	0.000	
24	  N6	2.596	6.874	4.226	N.pl3	1	SAM302	0.000	
25	  N7	1.812	4.301	2.661	N.2	1	SAM302	0.000	
26	  C8	1.043	3.268	2.312	C.2	1	SAM302	0.000	
27	  N9	-0.186	3.283	3.011	N.2	1	SAM302	0.000	
@<TRIPOS>BOND
1 1 2 1
2 2 3 1
3 2 5 1
4 3 4 ar
5 3 17 ar
6 5 6 1
7 6 7 1
8 7 8 1
9 7 9 1
10 9 10 1
11 10 11 1
12 10 12 1
13 11 16 1
14 12 13 1
15 12 14 1
16 14 15 1
17 14 16 1
18 16 27 1
19 18 19 ar
20 18 23 ar
21 19 20 ar
22 20 21 ar
23 21 22 ar
24 21 27 ar
25 22 23 ar
26 22 25 ar
27 23 24 1
28 25 26 ar
29 26 27 ar
@<TRIPOS>SUBSTRUCTURE
1	SAM302	1	GROUP	1 A	SAM
