# created with PyMOL 2.4.0
@<TRIPOS>MOLECULE
temp
50 52 1                 
SMALL
USER_CHARGES
@<TRIPOS>ATOM
1	   N	-3.038	-3.231	8.426	N.4	1	SAM1	0.000	
2	  CA	-4.016	-3.661	7.374	C.3	1	SAM1	0.000	
3	   C	-4.593	-5.066	7.724	C.2	1	SAM1	0.000	
4	   O	-3.837	-5.866	8.282	O.co2	1	SAM1	0.000	
5	  CB	-3.268	-3.858	5.979	C.3	1	SAM1	0.000	
6	  CG	-2.589	-2.541	5.497	C.3	1	SAM1	0.000	
7	  SD	-1.903	-2.757	3.824	S.3	1	SAM1	0.000	
8	  CE	-0.602	-3.934	4.149	C.3	1	SAM1	0.000	
9	 C5'	-0.846	-1.228	3.643	C.3	1	SAM1	0.000	
10	 C4'	-1.609	0.069	3.483	C.3	1	SAM1	0.000	
11	 O4'	-0.763	1.174	3.770	O.3	1	SAM1	0.000	
12	 C3'	-2.246	0.322	2.071	C.3	1	SAM1	0.000	
13	 O3'	-3.697	0.426	2.208	O.3	1	SAM1	0.000	
14	 C2'	-1.596	1.686	1.651	C.3	1	SAM1	0.000	
15	 O2'	-2.385	2.541	0.852	O.3	1	SAM1	0.000	
16	 C1'	-1.285	2.321	3.020	C.3	1	SAM1	0.000	
17	 OXT	-5.801	-5.243	7.447	O.co2	1	SAM1	0.000	
18	  N1	0.500	6.567	5.323	N.2	1	SAM1	0.000	
19	  C2	-0.680	5.858	5.427	C.2	1	SAM1	0.000	
20	  N3	-1.066	4.759	4.753	N.2	1	SAM1	0.000	
21	  C4	-0.128	4.364	3.867	C.2	1	SAM1	0.000	
22	  C5	1.101	5.000	3.625	C.2	1	SAM1	0.000	
23	  C6	1.415	6.152	4.382	C.2	1	SAM1	0.000	
24	  N6	2.596	6.874	4.226	N.pl3	1	SAM1	0.000	
25	  N7	1.812	4.301	2.661	N.2	1	SAM1	0.000	
26	  C8	1.043	3.268	2.312	C.2	1	SAM1	0.000	
27	  N9	-0.186	3.283	3.011	N.2	1	SAM1	0.000	
28	  HA	-4.793	-2.898	7.321	 H	1	SAM1	0.000	
29	 HB1	-3.994	-4.175	5.231	 H	1	SAM1	0.000	
30	 HB2	-2.504	-4.628	6.093	 H	1	SAM1	0.000	
31	 HG1	-1.784	-2.279	6.184	 H	1	SAM1	0.000	
32	 HG2	-3.329	-1.740	5.482	 H	1	SAM1	0.000	
33	 HE1	-1.035	-4.925	4.288	 H	1	SAM1	0.000	
34	 HE2	-0.065	-3.642	5.051	 H	1	SAM1	0.000	
35	 HE3	0.088	-3.954	3.306	 H	1	SAM1	0.000	
36	  H1	-2.302	-3.918	8.502	 H	1	SAM1	0.000	
37	  H2	-3.513	-3.147	9.313	 H	1	SAM1	0.000	
38	  H2	-1.390	6.237	6.147	 H	1	SAM1	0.000	
39	  H3	-2.640	-2.338	8.171	 H	1	SAM1	0.000	
40	  H8	1.323	2.517	1.588	 H	1	SAM1	0.000	
41	 H1'	-2.167	2.842	3.393	 H	1	SAM1	0.000	
42	 H2'	-0.740	1.522	0.996	 H	1	SAM1	0.000	
43	 H2'	-2.593	2.070	0.042	 H	1	SAM1	0.000	
44	 H3'	-2.072	-0.466	1.338	 H	1	SAM1	0.000	
45	 H3'	-4.055	0.650	1.346	 H	1	SAM1	0.000	
46	 H4'	-2.435	-0.028	4.188	 H	1	SAM1	0.000	
47	 H61	3.281	6.581	3.544	 H	1	SAM1	0.000	
48	 H62	2.768	7.690	4.795	 H	1	SAM1	0.000	
49	H5'1	-0.214	-1.357	2.765	 H	1	SAM1	0.000	
50	H5'2	-0.221	-1.144	4.532	 H	1	SAM1	0.000	
@<TRIPOS>BOND
1 1 2 1
2 1 36 1
3 1 37 1
4 1 39 1
5 2 3 1
6 2 5 1
7 2 28 1
8 3 4 ar
9 3 17 ar
10 5 6 1
11 5 29 1
12 5 30 1
13 6 7 1
14 6 31 1
15 6 32 1
16 7 8 1
17 7 9 1
18 8 33 1
19 8 34 1
20 8 35 1
21 9 10 1
22 9 49 1
23 9 50 1
24 10 11 1
25 10 12 1
26 10 46 1
27 11 16 1
28 12 13 1
29 12 14 1
30 12 44 1
31 13 45 1
32 14 15 1
33 14 16 1
34 14 42 1
35 15 43 1
36 16 27 1
37 16 41 1
38 18 19 ar
39 18 23 ar
40 19 20 ar
41 19 38 1
42 20 21 ar
43 21 22 ar
44 21 27 ar
45 22 23 ar
46 22 25 ar
47 23 24 1
48 24 47 1
49 24 48 1
50 25 26 ar
51 26 27 ar
52 26 40 1
@<TRIPOS>SUBSTRUCTURE
1	SAM1	1	GROUP	1 A	SAM
