@<TRIPOS>MOLECULE
6I3C.A
51 53 1 0 0 
SMALL
USER_CHARGES


@<TRIPOS>ATOM
  1 N       -3.0380    -3.2310     8.4260 N.4   1 SAM  -0.8530 
  2 H1      -2.3018    -3.9182     8.5023 H     1 SAM   0.4500 
  3 H2      -3.5132    -3.1468     9.3132 H     1 SAM   0.4500 
  4 H3      -2.6402    -2.3383     8.1711 H     1 SAM   0.4500 
  5 CA      -4.0160    -3.6610     7.3740 C.3   1 SAM   0.3170 
  6 HA      -4.7925    -2.8979     7.3206 H     1 SAM   0.0800 
  7 C       -4.5930    -5.0660     7.7240 C.2   1 SAM   0.9060 
  8 O       -3.8370    -5.8660     8.2820 O.co2 1 SAM  -0.9000 
  9 CB      -3.2680    -3.8580     5.9790 C.3   1 SAM  -0.1600 
 10 HB1     -3.9943    -4.1752     5.2306 H     1 SAM   0.0800 
 11 HB2     -2.5045    -4.6275     6.0933 H     1 SAM   0.0800 
 12 CG      -2.5890    -2.5410     5.4970 C.3   1 SAM  -0.1525 
 13 HG1     -1.7844    -2.2792     6.1842 H     1 SAM   0.0800 
 14 HG2     -3.3285    -1.7403     5.4815 H     1 SAM   0.0800 
 15 SD      -1.9030    -2.7570     3.8240 S.3   1 SAM   0.9775 
 16 CE      -0.6020    -3.9340     4.1490 C.3   1 SAM  -0.2325 
 17 HE1     -1.0348    -4.9246     4.2884 H     1 SAM   0.0800 
 18 HE2     -0.0648    -3.6419     5.0514 H     1 SAM   0.0800 
 19 HE3      0.0884    -3.9545     3.3058 H     1 SAM   0.0800 
 20 C5'     -0.8460    -1.2280     3.6430 C.3   1 SAM  -0.1525 
 21 H5'1    -0.2137    -1.3575     2.7647 H     1 SAM   0.0800 
 22 H5'2    -0.2205    -1.1436     4.5317 H     1 SAM   0.0800 
 23 C4'     -1.6090     0.0690     3.4830 C.3   1 SAM   0.2000 
 24 H4'     -2.4349    -0.0283     4.1877 H     1 SAM   0.0800 
 25 O4'     -0.7630     1.1740     3.7700 O.3   1 SAM  -0.5600 
 26 C3'     -2.2460     0.3220     2.0710 C.3   1 SAM   0.2000 
 27 H3'     -2.0715    -0.4657     1.3381 H     1 SAM   0.0800 
 28 O3'     -3.6970     0.4260     2.2080 O.3   1 SAM  -0.6800 
 29 H3'     -4.0547     0.6500     1.3457 H     1 SAM   0.4000 
 30 C2'     -1.5960     1.6860     1.6510 C.3   1 SAM   0.2000 
 31 H2'     -0.7401     1.5217     0.9964 H     1 SAM   0.0800 
 32 O2'     -2.3850     2.5410     0.8520 O.3   1 SAM  -0.6800 
 33 H2'     -1.8683     3.3302     0.6735 H     1 SAM   0.4000 
 34 C1'     -1.2850     2.3210     3.0200 C.3   1 SAM   0.5691 
 35 H1'     -2.1668     2.8420     3.3928 H     1 SAM   0.0800 
 36 OXT     -5.8010    -5.2430     7.4470 O.co2 1 SAM  -0.9000 
 37 N1       0.5000     6.5670     5.3230 N.2   1 SAM  -0.6610 
 38 C2      -0.6800     5.8580     5.4270 C.2   1 SAM   0.6010 
 39 H2      -1.3900     6.2369     6.1473 H     1 SAM   0.0600 
 40 N3      -1.0660     4.7590     4.7530 N.2   1 SAM  -0.6610 
 41 C4      -0.1280     4.3640     3.8670 C.2   1 SAM   0.5000 
 42 C5       1.1010     5.0000     3.6250 C.2   1 SAM   0.4500 
 43 C6       1.4150     6.1520     4.3820 C.2   1 SAM   0.6110 
 44 N6       2.5960     6.8740     4.2260 N.2   1 SAM  -0.2000 
 45 H62      2.7676     7.6905     4.7952 H     1 SAM   0.4000 
 46 H61      3.2807     6.5810     3.5437 H     1 SAM   0.4000 
 47 N7       1.8120     4.3010     2.6610 N.2   1 SAM  -0.6960 
 48 C8       1.0430     3.2680     2.3120 C.3   1 SAM   0.4551 
 49 H81      1.5693     2.3409     2.5391 H     1 SAM   0.0800 
 50 H82      0.8434     3.3196     1.2417 H     1 SAM   0.0800 
 51 N9      -0.1860     3.2830     3.0110 N.pl3 1 SAM  -0.7882 
@<TRIPOS>BOND
  1   1   2  1   
  2   1   3  1   
  3   1   4  1   
  4   1   5  1   
  5   5   6  1   
  6   5   7  1   
  7   5   9  1   
  8   7   8  ar  
  9   7  36  ar  
 10   9  10  1   
 11   9  11  1   
 12   9  12  1   
 13  12  13  1   
 14  12  14  1   
 15  12  15  1   
 16  15  16  1   
 17  15  20  1   
 18  16  17  1   
 19  16  18  1   
 20  16  19  1   
 21  20  21  1   
 22  20  22  1   
 23  20  23  1   
 24  23  24  1   
 25  23  25  1   
 26  23  26  1   
 27  25  34  1   
 28  26  27  1   
 29  26  28  1   
 30  26  30  1   
 31  28  29  1   
 32  30  31  1   
 33  30  32  1   
 34  30  34  1   
 35  32  33  1   
 36  34  35  1   
 37  34  51  1   
 38  37  38  2   
 39  37  43  1   
 40  38  39  1   
 41  38  40  1   
 42  40  41  2   
 43  41  42  1   
 44  41  51  1   
 45  42  43  1   
 46  42  47  2   
 47  43  44  2   
 48  44  45  1   
 49  44  46  1   
 50  47  48  1   
 51  48  49  1   
 52  48  50  1   
 53  48  51  1   
@<TRIPOS>SUBSTRUCTURE
  1 SAM  25 GROUP 4 A **** 0

# MOE 2022.02 (io_trps.svl 2020.11)
