# created with PyMOL 2.4.0
@<TRIPOS>MOLECULE
temp
50 52 1                 
SMALL
USER_CHARGES
@<TRIPOS>ATOM
1	   N	63.397	36.105	22.702	N.4	1	SAM1	0.000	
2	  CA	63.953	35.386	21.549	C.3	1	SAM1	0.000	
3	   C	63.816	33.853	21.586	C.2	1	SAM1	0.000	
4	   O	63.259	33.282	22.534	O.co2	1	SAM1	0.000	
5	  CB	65.461	35.808	21.359	C.3	1	SAM1	0.000	
6	  CG	65.897	37.177	20.745	C.3	1	SAM1	0.000	
7	  SD	65.189	37.134	19.013	S.3	1	SAM1	0.000	
8	  CE	66.605	37.841	18.157	C.3	1	SAM1	0.000	
9	 C5'	63.874	38.417	18.664	C.3	1	SAM1	0.000	
10	 C4'	62.514	38.192	19.241	C.3	1	SAM1	0.000	
11	 O4'	62.529	38.196	20.691	O.3	1	SAM1	0.000	
12	 C3'	61.368	39.163	18.990	C.3	1	SAM1	0.000	
13	 O3'	61.142	39.227	17.614	O.3	1	SAM1	0.000	
14	 C2'	60.344	38.752	20.132	C.3	1	SAM1	0.000	
15	 O2'	59.648	37.724	19.551	O.3	1	SAM1	0.000	
16	 C1'	61.431	38.979	21.237	C.3	1	SAM1	0.000	
17	 OXT	64.265	33.167	20.651	O.co2	1	SAM1	0.000	
18	  N1	60.322	42.681	24.566	N.2	1	SAM1	0.000	
19	  C2	59.582	41.648	24.022	C.2	1	SAM1	0.000	
20	  N3	60.010	40.704	23.115	N.2	1	SAM1	0.000	
21	  C4	61.410	40.895	22.744	C.2	1	SAM1	0.000	
22	  C5	62.277	41.912	23.224	C.2	1	SAM1	0.000	
23	  C6	61.684	42.847	24.190	C.2	1	SAM1	0.000	
24	  N6	62.362	43.862	24.743	N.pl3	1	SAM1	0.000	
25	  N7	63.540	41.800	22.660	N.2	1	SAM1	0.000	
26	  C8	63.450	40.761	21.873	C.2	1	SAM1	0.000	
27	  N9	62.187	40.106	21.832	N.2	1	SAM1	0.000	
28	  HA	63.346	35.682	20.693	 H	1	SAM1	0.000	
29	 HB1	65.909	35.041	20.727	 H	1	SAM1	0.000	
30	 HB2	65.910	35.769	22.352	 H	1	SAM1	0.000	
31	 HG1	66.983	37.263	20.719	 H	1	SAM1	0.000	
32	 HG2	65.481	38.008	21.314	 H	1	SAM1	0.000	
33	 HE1	67.467	37.185	18.277	 H	1	SAM1	0.000	
34	 HE2	66.833	38.820	18.578	 H	1	SAM1	0.000	
35	 HE3	66.373	37.946	17.097	 H	1	SAM1	0.000	
36	  H1	63.923	35.869	23.531	 H	1	SAM1	0.000	
37	  H2	62.430	35.841	22.829	 H	1	SAM1	0.000	
38	  H2	58.554	41.573	24.344	 H	1	SAM1	0.000	
39	  H3	63.456	37.100	22.538	 H	1	SAM1	0.000	
40	  H8	64.289	40.418	21.285	 H	1	SAM1	0.000	
41	 H1'	60.732	38.884	22.068	 H	1	SAM1	0.000	
42	 H2'	59.439	39.129	20.609	 H	1	SAM1	0.000	
43	 H2'	58.972	38.112	18.991	 H	1	SAM1	0.000	
44	 H3'	61.437	40.243	19.119	 H	1	SAM1	0.000	
45	 H3'	60.337	39.731	17.475	 H	1	SAM1	0.000	
46	 H4'	62.316	37.260	18.712	 H	1	SAM1	0.000	
47	 H61	63.331	44.014	24.500	 H	1	SAM1	0.000	
48	 H62	61.904	44.475	25.402	 H	1	SAM1	0.000	
49	H5'1	63.762	38.482	17.582	 H	1	SAM1	0.000	
50	H5'2	64.238	39.369	19.050	 H	1	SAM1	0.000	
@<TRIPOS>BOND
1 1 2 1
2 1 36 1
3 1 37 1
4 1 39 1
5 2 3 1
6 2 5 1
7 2 28 1
8 3 4 ar
9 3 17 ar
10 5 6 1
11 5 29 1
12 5 30 1
13 6 7 1
14 6 31 1
15 6 32 1
16 7 8 1
17 7 9 1
18 8 33 1
19 8 34 1
20 8 35 1
21 9 10 1
22 9 49 1
23 9 50 1
24 10 11 1
25 10 12 1
26 10 46 1
27 11 16 1
28 12 13 1
29 12 14 1
30 12 44 1
31 13 45 1
32 14 15 1
33 14 16 1
34 14 42 1
35 15 43 1
36 16 27 1
37 16 41 1
38 18 19 ar
39 18 23 ar
40 19 20 ar
41 19 38 1
42 20 21 ar
43 21 22 ar
44 21 27 ar
45 22 23 ar
46 22 25 ar
47 23 24 1
48 24 47 1
49 24 48 1
50 25 26 ar
51 26 27 ar
52 26 40 1
@<TRIPOS>SUBSTRUCTURE
1	SAM1	1	GROUP	1 A	SAM
