# created with PyMOL 2.5.0
@<TRIPOS>MOLECULE
1N6A
27 29 1                 
SMALL
USER_CHARGES
@<TRIPOS>ATOM
1	   N	63.397	36.105	22.702	N.3	1	SAM402	0.000	
2	  CA	63.953	35.386	21.549	C.3	1	SAM402	0.000	
3	   C	63.816	33.853	21.586	C.2	1	SAM402	0.000	
4	   O	63.259	33.282	22.534	O.co2	1	SAM402	0.000	
5	  CB	65.461	35.808	21.359	C.3	1	SAM402	0.000	
6	  CG	65.897	37.177	20.745	C.3	1	SAM402	0.000	
7	  SD	65.189	37.134	19.013	S.3	1	SAM402	0.000	
8	  CE	66.605	37.841	18.157	C.3	1	SAM402	0.000	
9	 C5'	63.874	38.417	18.664	C.3	1	SAM402	0.000	
10	 C4'	62.514	38.192	19.241	C.3	1	SAM402	0.000	
11	 O4'	62.529	38.196	20.691	O.3	1	SAM402	0.000	
12	 C3'	61.368	39.163	18.990	C.3	1	SAM402	0.000	
13	 O3'	61.142	39.227	17.614	O.3	1	SAM402	0.000	
14	 C2'	60.344	38.752	20.132	C.3	1	SAM402	0.000	
15	 O2'	59.648	37.724	19.551	O.3	1	SAM402	0.000	
16	 C1'	61.431	38.979	21.237	C.3	1	SAM402	0.000	
17	 OXT	64.265	33.167	20.651	O.co2	1	SAM402	0.000	
18	  N1	60.322	42.681	24.566	N.2	1	SAM402	0.000	
19	  C2	59.582	41.648	24.022	C.2	1	SAM402	0.000	
20	  N3	60.010	40.704	23.115	N.2	1	SAM402	0.000	
21	  C4	61.410	40.895	22.744	C.2	1	SAM402	0.000	
22	  C5	62.277	41.912	23.224	C.2	1	SAM402	0.000	
23	  C6	61.684	42.847	24.190	C.2	1	SAM402	0.000	
24	  N6	62.362	43.862	24.743	N.pl3	1	SAM402	0.000	
25	  N7	63.540	41.800	22.660	N.2	1	SAM402	0.000	
26	  C8	63.450	40.761	21.873	C.2	1	SAM402	0.000	
27	  N9	62.187	40.106	21.832	N.2	1	SAM402	0.000	
@<TRIPOS>BOND
1 1 2 1
2 2 3 1
3 2 5 1
4 3 4 ar
5 3 17 ar
6 5 6 1
7 6 7 1
8 7 8 1
9 7 9 1
10 9 10 1
11 10 11 1
12 10 12 1
13 11 16 1
14 12 13 1
15 12 14 1
16 14 15 1
17 14 16 1
18 16 27 1
19 18 19 ar
20 18 23 ar
21 19 20 ar
22 20 21 ar
23 21 22 ar
24 21 27 ar
25 22 23 ar
26 22 25 ar
27 23 24 1
28 25 26 ar
29 26 27 ar
@<TRIPOS>SUBSTRUCTURE
1	SAM402	1	GROUP	1 A	SAM
