@<TRIPOS>MOLECULE
1N6A.A
51 53 1 0 0 
SMALL
USER_CHARGES


@<TRIPOS>ATOM
  1 N       63.3970    36.1050    22.7020 N.4   1 SAM  -0.8530 
  2 H1      63.9225    35.8686    23.5315 H     1 SAM   0.4500 
  3 H2      62.4304    35.8410    22.8292 H     1 SAM   0.4500 
  4 H3      63.4555    37.1000    22.5385 H     1 SAM   0.4500 
  5 CA      63.9530    35.3860    21.5490 C.3   1 SAM   0.3170 
  6 HA      63.3464    35.6823    20.6932 H     1 SAM   0.0800 
  7 C       63.8160    33.8530    21.5860 C.2   1 SAM   0.9060 
  8 O       63.2590    33.2820    22.5340 O.co2 1 SAM  -0.9000 
  9 CB      65.4610    35.8080    21.3590 C.3   1 SAM  -0.1600 
 10 HB1     65.9089    35.0408    20.7274 H     1 SAM   0.0800 
 11 HB2     65.9097    35.7690    22.3516 H     1 SAM   0.0800 
 12 CG      65.8970    37.1770    20.7450 C.3   1 SAM  -0.1525 
 13 HG1     66.9833    37.2625    20.7186 H     1 SAM   0.0800 
 14 HG2     65.4809    38.0082    21.3142 H     1 SAM   0.0800 
 15 SD      65.1890    37.1340    19.0130 S.3   1 SAM   0.9775 
 16 CE      66.6050    37.8410    18.1570 C.3   1 SAM  -0.2325 
 17 HE1     67.4669    37.1846    18.2769 H     1 SAM   0.0800 
 18 HE2     66.8326    38.8202    18.5784 H     1 SAM   0.0800 
 19 HE3     66.3733    37.9465    17.0971 H     1 SAM   0.0800 
 20 C5'     63.8740    38.4170    18.6640 C.3   1 SAM  -0.1525 
 21 H5'1    63.7618    38.4822    17.5818 H     1 SAM   0.0800 
 22 H5'2    64.2378    39.3694    19.0496 H     1 SAM   0.0800 
 23 C4'     62.5140    38.1920    19.2410 C.3   1 SAM   0.2000 
 24 H4'     62.3161    37.2598    18.7118 H     1 SAM   0.0800 
 25 O4'     62.5290    38.1960    20.6910 O.3   1 SAM  -0.5600 
 26 C3'     61.3680    39.1630    18.9900 C.3   1 SAM   0.2000 
 27 H3'     61.4369    40.2431    19.1192 H     1 SAM   0.0800 
 28 O3'     61.1420    39.2270    17.6140 O.3   1 SAM  -0.6800 
 29 H3'     60.3369    39.7312    17.4752 H     1 SAM   0.4000 
 30 C2'     60.3440    38.7520    20.1320 C.3   1 SAM   0.2000 
 31 H2'     59.4391    39.1291    20.6086 H     1 SAM   0.0800 
 32 O2'     59.6480    37.7240    19.5510 O.3   1 SAM  -0.6800 
 33 H2'     58.9716    38.1116    18.9908 H     1 SAM   0.4000 
 34 C1'     61.4310    38.9790    21.2370 C.3   1 SAM   0.5691 
 35 H1'     60.7322    38.8842    22.0681 H     1 SAM   0.0800 
 36 OXT     64.2650    33.1670    20.6510 O.co2 1 SAM  -0.9000 
 37 N1      60.3220    42.6810    24.5660 N.2   1 SAM  -0.6610 
 38 C2      59.5820    41.6480    24.0220 C.2   1 SAM   0.6010 
 39 H2      58.5539    41.5727    24.3440 H     1 SAM   0.0600 
 40 N3      60.0100    40.7040    23.1150 N.2   1 SAM  -0.6610 
 41 C4      61.4100    40.8950    22.7440 C.2   1 SAM   0.5000 
 42 C5      62.2770    41.9120    23.2240 C.2   1 SAM   0.4500 
 43 C6      61.6840    42.8470    24.1900 C.2   1 SAM   0.6110 
 44 N6      62.3620    43.8620    24.7430 N.2   1 SAM  -0.2000 
 45 H62     61.9044    44.4752    25.4023 H     1 SAM   0.4000 
 46 H61     63.3306    44.0138    24.5005 H     1 SAM   0.4000 
 47 N7      63.5400    41.8000    22.6600 N.2   1 SAM  -0.6960 
 48 C8      63.4500    40.7610    21.8730 C.3   1 SAM   0.4551 
 49 H81     64.1913    40.0319    22.2001 H     1 SAM   0.0800 
 50 H82     63.6860    41.0900    20.8610 H     1 SAM   0.0800 
 51 N9      62.1870    40.1060    21.8320 N.pl3 1 SAM  -0.7882 
@<TRIPOS>BOND
  1   1   2  1   
  2   1   3  1   
  3   1   4  1   
  4   1   5  1   
  5   5   6  1   
  6   5   7  1   
  7   5   9  1   
  8   7   8  ar  
  9   7  36  ar  
 10   9  10  1   
 11   9  11  1   
 12   9  12  1   
 13  12  13  1   
 14  12  14  1   
 15  12  15  1   
 16  15  16  1   
 17  15  20  1   
 18  16  17  1   
 19  16  18  1   
 20  16  19  1   
 21  20  21  1   
 22  20  22  1   
 23  20  23  1   
 24  23  24  1   
 25  23  25  1   
 26  23  26  1   
 27  25  34  1   
 28  26  27  1   
 29  26  28  1   
 30  26  30  1   
 31  28  29  1   
 32  30  31  1   
 33  30  32  1   
 34  30  34  1   
 35  32  33  1   
 36  34  35  1   
 37  34  51  1   
 38  37  38  2   
 39  37  43  1   
 40  38  39  1   
 41  38  40  1   
 42  40  41  2   
 43  41  42  1   
 44  41  51  1   
 45  42  43  1   
 46  42  47  2   
 47  43  44  2   
 48  44  45  1   
 49  44  46  1   
 50  47  48  1   
 51  48  49  1   
 52  48  50  1   
 53  48  51  1   
@<TRIPOS>SUBSTRUCTURE
  1 SAM  25 GROUP 4 A **** 0

# MOE 2022.02 (io_trps.svl 2020.11)
