# created with PyMOL 2.5.2
@<TRIPOS>MOLECULE
for_leap
33 35 1                 
SMALL
USER_CHARGES
@<TRIPOS>ATOM
1	   N	-7.267	2.363	-24.539	N.pl3	1	43G43G	0.000	
2	   C	-7.999	4.367	-23.379	C.2	1	43G43G	0.000	
3	   O	-7.185	4.798	-21.200	O.2	1	43G43G	0.000	
4	  C1	-8.018	3.503	-24.486	C.2	1	43G43G	0.000	
5	  C2	-6.511	2.055	-23.450	C.2	1	43G43G	0.000	
6	  C3	-6.422	2.853	-22.296	C.2	1	43G43G	0.000	
7	  C4	-7.208	4.013	-22.270	C.2	1	43G43G	0.000	
8	  O5	-8.742	5.505	-23.364	O.3	1	43G43G	0.000	
9	  C6	-7.355	1.544	-25.607	C.2	1	43G43G	0.000	
10	  C7	-7.352	1.982	-26.937	C.2	1	43G43G	0.000	
11	  C8	-7.490	1.108	-28.008	C.2	1	43G43G	0.000	
12	  C9	-7.654	-0.250	-27.727	C.2	1	43G43G	0.000	
13	 C10	-7.700	-0.737	-26.420	C.2	1	43G43G	0.000	
14	 C11	-7.558	0.172	-25.378	C.2	1	43G43G	0.000	
15	 C12	-7.475	1.601	-29.412	C.2	1	43G43G	0.000	
16	 C13	-8.360	1.029	-30.338	C.2	1	43G43G	0.000	
17	 C14	-8.413	1.466	-31.660	C.2	1	43G43G	0.000	
18	 C15	-7.566	2.494	-32.055	C.2	1	43G43G	0.000	
19	 C16	-6.679	3.070	-31.153	C.2	1	43G43G	0.000	
20	 C17	-6.630	2.623	-29.819	C.2	1	43G43G	0.000	
21	  H1	-8.650	3.749	-25.327	 H	1	43G43G	0.000	
22	  H2	-5.942	1.137	-23.474	 H	1	43G43G	0.000	
23	  H3	-5.780	2.585	-21.470	 H	1	43G43G	0.000	
24	  H7	-7.238	3.037	-27.137	 H	1	43G43G	0.000	
25	  H9	-7.748	-0.946	-28.548	 H	1	43G43G	0.000	
26	 H01	-8.916	5.786	-24.265	 H	1	43G43G	0.000	
27	 H10	-7.842	-1.789	-26.224	 H	1	43G43G	0.000	
28	 H11	-7.605	-0.187	-24.361	 H	1	43G43G	0.000	
29	 H13	-9.015	0.232	-30.019	 H	1	43G43G	0.000	
30	 H14	-9.098	1.015	-32.363	 H	1	43G43G	0.000	
31	 H15	-7.597	2.850	-33.074	 H	1	43G43G	0.000	
32	 H16	-6.024	3.865	-31.477	 H	1	43G43G	0.000	
33	 H17	-5.941	3.072	-29.119	 H	1	43G43G	0.000	
@<TRIPOS>BOND
1 1 4 1
2 1 5 1
3 1 9 1
4 2 4 2
5 2 7 1
6 2 8 1
7 4 21 1
8 5 6 2
9 5 22 1
10 6 7 1
11 6 23 1
12 8 26 1
13 9 10 ar
14 9 14 ar
15 10 11 ar
16 10 24 1
17 11 12 ar
18 11 15 1
19 12 13 ar
20 12 25 1
21 13 14 ar
22 13 27 1
23 14 28 1
24 15 16 ar
25 15 20 ar
26 16 17 ar
27 16 29 1
28 17 18 ar
29 17 30 1
30 18 19 ar
31 18 31 1
32 19 20 ar
33 19 32 1
34 20 33 1
35 3 7 2
@<TRIPOS>SUBSTRUCTURE
1	43G43G	1	GROUP	1 A	43G
