# created with PyMOL 2.5.0
@<TRIPOS>MOLECULE
4XUC
20 22 1                 
SMALL
USER_CHARGES
@<TRIPOS>ATOM
1	   N	-7.267	2.363	-24.539	N.2	1	43G301	0.000	
2	   C	-7.999	4.367	-23.379	C.2	1	43G301	0.000	
3	   O	-7.185	4.798	-21.200	O.3	1	43G301	0.000	
4	  C1	-8.018	3.503	-24.486	C.2	1	43G301	0.000	
5	  C2	-6.511	2.055	-23.450	C.2	1	43G301	0.000	
6	  C3	-6.422	2.853	-22.296	C.2	1	43G301	0.000	
7	  C4	-7.208	4.013	-22.270	C.2	1	43G301	0.000	
8	  O5	-8.742	5.505	-23.364	O.3	1	43G301	0.000	
9	  C6	-7.355	1.544	-25.607	C.2	1	43G301	0.000	
10	  C7	-7.352	1.982	-26.937	C.2	1	43G301	0.000	
11	  C8	-7.490	1.108	-28.008	C.2	1	43G301	0.000	
12	  C9	-7.654	-0.250	-27.727	C.2	1	43G301	0.000	
13	 C10	-7.700	-0.737	-26.420	C.2	1	43G301	0.000	
14	 C11	-7.558	0.172	-25.378	C.2	1	43G301	0.000	
15	 C12	-7.475	1.601	-29.412	C.2	1	43G301	0.000	
16	 C13	-8.360	1.029	-30.338	C.2	1	43G301	0.000	
17	 C14	-8.413	1.466	-31.660	C.2	1	43G301	0.000	
18	 C15	-7.566	2.494	-32.055	C.2	1	43G301	0.000	
19	 C16	-6.679	3.070	-31.153	C.2	1	43G301	0.000	
20	 C17	-6.630	2.623	-29.819	C.2	1	43G301	0.000	
@<TRIPOS>BOND
1 1 4 ar
2 1 5 ar
3 1 9 1
4 2 4 ar
5 2 7 ar
6 2 8 1
7 3 7 1
8 5 6 ar
9 6 7 ar
10 9 10 ar
11 9 14 ar
12 10 11 ar
13 11 12 ar
14 11 15 1
15 12 13 ar
16 13 14 ar
17 15 16 ar
18 15 20 ar
19 16 17 ar
20 17 18 ar
21 18 19 ar
22 19 20 ar
@<TRIPOS>SUBSTRUCTURE
1	43G301	1	GROUP	1 A	43G
