@<TRIPOS>MOLECULE
4XUC.A
33 35 1 0 0 
SMALL
USER_CHARGES


@<TRIPOS>ATOM
  1 N       -7.2670     2.3630   -24.5390 N.pl3 1 Q43G  -0.3000 
  2 C       -7.9990     4.3670   -23.3790 C.2   1 Q43G   0.0911 
  3 O       -7.1850     4.7980   -21.2000 O.2   1 Q43G  -0.5700 
  4 C1      -8.0180     3.5030   -24.4860 C.2   1 Q43G  -0.0500 
  5 H1      -8.6498     3.7489   -25.3267 H     1 Q43G   0.1500 
  6 C2      -6.5110     2.0550   -23.4500 C.2   1 Q43G  -0.0500 
  7 H2      -5.9421     1.1373   -23.4739 H     1 Q43G   0.1500 
  8 C3      -6.4220     2.8530   -22.2960 C.2   1 Q43G  -0.1356 
  9 H3      -5.7795     2.5853   -21.4702 H     1 Q43G   0.1500 
 10 C4      -7.2080     4.0130   -22.2700 C.2   1 Q43G   0.5412 
 11 O5      -8.7420     5.5050   -23.3640 O.3   1 Q43G  -0.5267 
 12 H5      -8.6770     6.0214   -22.5573 H     1 Q43G   0.4500 
 13 C6      -7.3550     1.5440   -25.6070 C.ar  1 Q43G   0.1000 
 14 C7      -7.3520     1.9820   -26.9370 C.ar  1 Q43G  -0.1500 
 15 H7      -7.2383     3.0371   -27.1374 H     1 Q43G   0.1500 
 16 C8      -7.4900     1.1080   -28.0080 C.ar  1 Q43G   0.0000 
 17 C9      -7.6540    -0.2500   -27.7270 C.ar  1 Q43G  -0.1500 
 18 H9      -7.7483    -0.9458   -28.5476 H     1 Q43G   0.1500 
 19 C10     -7.7000    -0.7370   -26.4200 C.ar  1 Q43G  -0.1500 
 20 H10     -7.8418    -1.7895   -26.2238 H     1 Q43G   0.1500 
 21 C11     -7.5580     0.1720   -25.3780 C.ar  1 Q43G  -0.1500 
 22 H11     -7.6051    -0.1871   -24.3605 H     1 Q43G   0.1500 
 23 C12     -7.4750     1.6010   -29.4120 C.ar  1 Q43G   0.0000 
 24 C13     -8.3600     1.0290   -30.3380 C.ar  1 Q43G  -0.1500 
 25 H13     -9.0151     0.2318   -30.0190 H     1 Q43G   0.1500 
 26 C14     -8.4130     1.4660   -31.6600 C.ar  1 Q43G  -0.1500 
 27 H14     -9.0980     1.0151   -32.3628 H     1 Q43G   0.1500 
 28 C15     -7.5660     2.4940   -32.0550 C.ar  1 Q43G  -0.1500 
 29 H15     -7.5971     2.8496   -33.0743 H     1 Q43G   0.1500 
 30 C16     -6.6790     3.0700   -31.1530 C.ar  1 Q43G  -0.1500 
 31 H16     -6.0238     3.8649   -31.4774 H     1 Q43G   0.1500 
 32 C17     -6.6300     2.6230   -29.8190 C.ar  1 Q43G  -0.1500 
 33 H17     -5.9408     3.0717   -29.1189 H     1 Q43G   0.1500 
@<TRIPOS>BOND
  1   1   4  1   
  2   1   6  1   
  3   1  13  1   
  4   2   4  2   
  5   2  10  1   
  6   2  11  1   
  7   3  10  2   
  8   4   5  1   
  9   6   7  1   
 10   6   8  2   
 11   8   9  1   
 12   8  10  1   
 13  11  12  1   
 14  13  14  ar  
 15  13  21  ar  
 16  14  15  1   
 17  14  16  ar  
 18  16  17  ar  
 19  16  23  1   
 20  17  18  1   
 21  17  19  ar  
 22  19  20  1   
 23  19  21  ar  
 24  21  22  1   
 25  23  24  ar  
 26  23  32  ar  
 27  24  25  1   
 28  24  26  ar  
 29  26  27  1   
 30  26  28  ar  
 31  28  29  1   
 32  28  30  ar  
 33  30  31  1   
 34  30  32  ar  
 35  32  33  1   
@<TRIPOS>SUBSTRUCTURE
  1 Q43G  14 GROUP 4 A **** 0

# MOE 2022.02 (io_trps.svl 2020.11)
