# created with PyMOL 2.5.0
@<TRIPOS>MOLECULE
4XUC
12 12 1                 
SMALL
USER_CHARGES
@<TRIPOS>ATOM
1	  O1	-1.521	2.686	-31.983	O.3	1	MES304	0.000	
2	 O1S	-5.682	-3.243	-31.968	O.3	1	MES304	0.000	
3	  C2	-2.801	2.909	-31.408	C.3	1	MES304	0.000	
4	 O2S	-6.473	-1.813	-34.232	O.2	1	MES304	0.000	
5	  C3	-3.520	1.567	-31.238	C.3	1	MES304	0.000	
6	 O3S	-8.028	-1.831	-31.879	O.2	1	MES304	0.000	
7	  N4	-3.366	0.610	-32.375	N.3	1	MES304	0.000	
8	  C5	-2.307	0.868	-33.403	C.3	1	MES304	0.000	
9	  C6	-1.720	2.279	-33.344	C.3	1	MES304	0.000	
10	  C7	-4.656	0.131	-32.955	C.3	1	MES304	0.000	
11	  C8	-5.541	-0.545	-31.899	C.3	1	MES304	0.000	
12	   S	-6.455	-1.848	-32.530	S.3	1	MES304	0.000	
@<TRIPOS>BOND
1 1 3 1
2 1 9 1
3 2 12 1
4 3 5 1
5 4 12 2
6 5 7 1
7 6 12 2
8 7 8 1
9 7 10 1
10 8 9 1
11 10 11 1
12 11 12 1
@<TRIPOS>SUBSTRUCTURE
1	MES304	1	GROUP	1 A	MES
