# created with PyMOL 2.4.0
@<TRIPOS>MOLECULE
4XUC.A
24 24 1                 
SMALL
USER_CHARGES
@<TRIPOS>ATOM
1	  O1	-1.521	2.686	-31.983	O.3	1	MES1	-0.560	
2	 O1S	-5.682	-3.243	-31.968	O.2	1	MES1	-0.817	
3	  C2	-2.801	2.909	-31.408	C.3	1	MES1	0.120	
4	 O2S	-6.473	-1.813	-34.232	 O	1	MES1	-0.817	
5	  C3	-3.520	1.567	-31.238	C.3	1	MES1	0.110	
6	 O3S	-8.028	-1.831	-31.879	O.2	1	MES1	-0.817	
7	  N4	-3.366	0.610	-32.375	N.3	1	MES1	-0.810	
8	  C5	-2.307	0.868	-33.403	C.3	1	MES1	0.110	
9	  C6	-1.720	2.279	-33.344	C.3	1	MES1	0.120	
10	  C7	-4.656	0.131	-32.955	C.3	1	MES1	0.110	
11	  C8	-5.541	-0.545	-31.899	C.3	1	MES1	-0.055	
12	   S	-6.455	-1.848	-32.530	S.3	1	MES1	1.345	
13	 H21	-3.386	3.556	-32.062	 H	1	MES1	0.080	
14	 H22	-2.685	3.386	-30.435	 H	1	MES1	0.080	
15	 H31	-4.583	1.769	-31.110	 H	1	MES1	0.080	
16	 H32	-3.130	1.088	-30.340	 H	1	MES1	0.080	
17	 H51	-2.743	0.718	-34.391	 H	1	MES1	0.080	
18	 H52	-1.499	0.153	-33.251	 H	1	MES1	0.080	
19	 H61	-0.763	2.291	-33.865	 H	1	MES1	0.080	
20	 H62	-2.406	2.973	-33.829	 H	1	MES1	0.080	
21	 H71	-4.442	-0.586	-33.747	 H	1	MES1	0.080	
22	 H72	-5.193	0.983	-33.372	 H	1	MES1	0.080	
23	 H81	-6.228	0.198	-31.494	 H	1	MES1	0.080	
24	 H82	-4.903	-0.923	-31.100	 H	1	MES1	0.080	
@<TRIPOS>BOND
1 1 3 1
2 1 9 1
3 3 5 1
4 3 13 1
5 3 14 1
6 5 7 1
7 5 15 1
8 5 16 1
9 7 8 1
10 7 10 1
11 8 9 1
12 8 17 1
13 8 18 1
14 9 19 1
15 9 20 1
16 10 11 1
17 10 21 1
18 10 22 1
19 11 12 1
20 11 23 1
21 11 24 1
22 2 12 2
23 6 12 2
24 4 12 1
@<TRIPOS>SUBSTRUCTURE
1	MES1	1	GROUP	1 A	MES
