@<TRIPOS>MOLECULE
4XUC.A
24 24 1 0 0 
SMALL
USER_CHARGES


@<TRIPOS>ATOM
  1 O1      -1.5210     2.6860   -31.9830 O.3   1 MES  -0.5600 
  2 O1S     -5.6820    -3.2430   -31.9680 O.co2 1 MES  -0.8167 
  3 C2      -2.8010     2.9090   -31.4080 C.3   1 MES   0.1200 
  4 H21     -3.3863     3.5555   -32.0618 H     1 MES   0.0800 
  5 H22     -2.6850     3.3858   -30.4347 H     1 MES   0.0800 
  6 O2S     -6.4730    -1.8130   -34.2320 O.co2 1 MES  -0.8167 
  7 C3      -3.5200     1.5670   -31.2380 C.3   1 MES   0.1100 
  8 H31     -4.5834     1.7689   -31.1098 H     1 MES   0.0800 
  9 H32     -3.1303     1.0879   -30.3398 H     1 MES   0.0800 
 10 O3S     -8.0280    -1.8310   -31.8790 O.co2 1 MES  -0.8167 
 11 N4      -3.3660     0.6100   -32.3750 N.3   1 MES  -0.8100 
 12 C5      -2.3070     0.8680   -33.4030 C.3   1 MES   0.1100 
 13 H51     -2.7431     0.7183   -34.3907 H     1 MES   0.0800 
 14 H52     -1.4986     0.1529   -33.2506 H     1 MES   0.0800 
 15 C6      -1.7200     2.2790   -33.3440 C.3   1 MES   0.1200 
 16 H61     -0.7628     2.2909   -33.8652 H     1 MES   0.0800 
 17 H62     -2.4064     2.9732   -33.8289 H     1 MES   0.0800 
 18 C7      -4.6560     0.1310   -32.9550 C.3   1 MES   0.1100 
 19 H71     -4.4416    -0.5865   -33.7471 H     1 MES   0.0800 
 20 H72     -5.1930     0.9829   -33.3721 H     1 MES   0.0800 
 21 C8      -5.5410    -0.5450   -31.8990 C.3   1 MES  -0.0548 
 22 H81     -6.2282     0.1979   -31.4941 H     1 MES   0.0800 
 23 H82     -4.9025    -0.9227   -31.1004 H     1 MES   0.0800 
 24 S       -6.4550    -1.8480   -32.5300 S.o2  1 MES   1.3448 
@<TRIPOS>BOND
  1   1   3  1   
  2   1  15  1   
  3   2  24  ar  
  4   3   4  1   
  5   3   5  1   
  6   3   7  1   
  7   6  24  ar  
  8   7   8  1   
  9   7   9  1   
 10   7  11  1   
 11  10  24  ar  
 12  11  12  1   
 13  11  18  1   
 14  12  13  1   
 15  12  14  1   
 16  12  15  1   
 17  15  16  1   
 18  15  17  1   
 19  18  19  1   
 20  18  20  1   
 21  18  21  1   
 22  21  22  1   
 23  21  23  1   
 24  21  24  1   
@<TRIPOS>SUBSTRUCTURE
  1 MES  18 GROUP 4 A **** 0

# MOE 2022.02 (io_trps.svl 2020.11)
