# created with PyMOL 2.5.0
@<TRIPOS>MOLECULE
4XUC
27 29 1                 
SMALL
USER_CHARGES
@<TRIPOS>ATOM
1	   N	-6.194	10.074	-17.701	N.3	1	SAM303	0.000	
2	  CA	-5.168	10.384	-18.730	C.3	1	SAM303	0.000	
3	   C	-5.717	11.378	-19.729	C.2	1	SAM303	0.000	
4	   O	-6.877	11.301	-20.148	O.co2	1	SAM303	0.000	
5	  CB	-4.796	9.125	-19.488	C.3	1	SAM303	0.000	
6	  CG	-4.093	8.104	-18.591	C.3	1	SAM303	0.000	
7	  SD	-3.519	6.657	-19.516	S.3	1	SAM303	0.000	
8	  CE	-5.033	5.980	-20.224	C.3	1	SAM303	0.000	
9	 C5'	-3.310	5.372	-18.222	C.3	1	SAM303	0.000	
10	 C4'	-2.176	5.599	-17.235	C.3	1	SAM303	0.000	
11	 O4'	-2.399	4.963	-15.977	O.3	1	SAM303	0.000	
12	 C3'	-0.801	5.143	-17.704	C.3	1	SAM303	0.000	
13	 O3'	-0.057	6.350	-17.763	O.3	1	SAM303	0.000	
14	 C2'	-0.318	4.191	-16.605	C.3	1	SAM303	0.000	
15	 O2'	1.055	4.296	-16.284	O.3	1	SAM303	0.000	
16	 C1'	-1.173	4.581	-15.406	C.3	1	SAM303	0.000	
17	 OXT	-4.983	12.281	-20.123	O.co2	1	SAM303	0.000	
18	  N1	-1.784	3.280	-10.445	N.2	1	SAM303	0.000	
19	  C2	-1.401	4.488	-10.964	C.2	1	SAM303	0.000	
20	  N3	-1.284	4.644	-12.327	N.2	1	SAM303	0.000	
21	  C4	-1.543	3.587	-13.134	C.2	1	SAM303	0.000	
22	  C5	-1.989	2.362	-12.633	C.2	1	SAM303	0.000	
23	  C6	-2.089	2.214	-11.253	C.2	1	SAM303	0.000	
24	  N6	-2.489	1.076	-10.697	N.pl3	1	SAM303	0.000	
25	  N7	-2.226	1.525	-13.700	N.2	1	SAM303	0.000	
26	  C8	-1.933	2.223	-14.828	C.2	1	SAM303	0.000	
27	  N9	-1.515	3.482	-14.496	N.2	1	SAM303	0.000	
@<TRIPOS>BOND
1 1 2 1
2 2 3 1
3 2 5 1
4 3 4 ar
5 3 17 ar
6 5 6 1
7 6 7 1
8 7 8 1
9 7 9 1
10 9 10 1
11 10 11 1
12 10 12 1
13 11 16 1
14 12 13 1
15 12 14 1
16 14 15 1
17 14 16 1
18 16 27 1
19 18 19 ar
20 18 23 ar
21 19 20 ar
22 20 21 ar
23 21 22 ar
24 21 27 ar
25 22 23 ar
26 22 25 ar
27 23 24 1
28 25 26 ar
29 26 27 ar
@<TRIPOS>SUBSTRUCTURE
1	SAM303	1	GROUP	1 A	SAM
