# created with PyMOL 2.4.0
@<TRIPOS>MOLECULE
temp
50 52 1                 
SMALL
USER_CHARGES
@<TRIPOS>ATOM
1	   N	-6.194	10.074	-17.701	N.4	1	SAM1	0.000	
2	  CA	-5.168	10.384	-18.730	C.3	1	SAM1	0.000	
3	   C	-5.717	11.378	-19.729	C.2	1	SAM1	0.000	
4	   O	-6.877	11.301	-20.148	O.co2	1	SAM1	0.000	
5	  CB	-4.796	9.125	-19.488	C.3	1	SAM1	0.000	
6	  CG	-4.093	8.104	-18.591	C.3	1	SAM1	0.000	
7	  SD	-3.519	6.657	-19.516	S.3	1	SAM1	0.000	
8	  CE	-5.033	5.980	-20.224	C.3	1	SAM1	0.000	
9	 C5'	-3.310	5.372	-18.222	C.3	1	SAM1	0.000	
10	 C4'	-2.176	5.599	-17.235	C.3	1	SAM1	0.000	
11	 O4'	-2.399	4.963	-15.977	O.3	1	SAM1	0.000	
12	 C3'	-0.801	5.143	-17.704	C.3	1	SAM1	0.000	
13	 O3'	-0.057	6.350	-17.763	O.3	1	SAM1	0.000	
14	 C2'	-0.318	4.191	-16.605	C.3	1	SAM1	0.000	
15	 O2'	1.055	4.296	-16.284	O.3	1	SAM1	0.000	
16	 C1'	-1.173	4.581	-15.406	C.3	1	SAM1	0.000	
17	 OXT	-4.983	12.281	-20.123	O.co2	1	SAM1	0.000	
18	  N1	-1.784	3.280	-10.445	N.2	1	SAM1	0.000	
19	  C2	-1.401	4.488	-10.964	C.2	1	SAM1	0.000	
20	  N3	-1.284	4.644	-12.327	N.2	1	SAM1	0.000	
21	  C4	-1.543	3.587	-13.134	C.2	1	SAM1	0.000	
22	  C5	-1.989	2.362	-12.633	C.2	1	SAM1	0.000	
23	  C6	-2.089	2.214	-11.253	C.2	1	SAM1	0.000	
24	  N6	-2.489	1.076	-10.697	N.pl3	1	SAM1	0.000	
25	  N7	-2.226	1.525	-13.700	N.2	1	SAM1	0.000	
26	  C8	-1.933	2.223	-14.828	C.2	1	SAM1	0.000	
27	  N9	-1.515	3.482	-14.496	N.2	1	SAM1	0.000	
28	  HA	-4.295	10.797	-18.224	 H	1	SAM1	0.000	
29	 HB1	-4.129	9.392	-20.308	 H	1	SAM1	0.000	
30	 HB2	-5.704	8.675	-19.890	 H	1	SAM1	0.000	
31	 HG1	-4.791	7.774	-17.822	 H	1	SAM1	0.000	
32	 HG2	-3.234	8.583	-18.121	 H	1	SAM1	0.000	
33	 HE1	-5.361	6.610	-21.051	 H	1	SAM1	0.000	
34	 HE2	-5.810	5.950	-19.460	 H	1	SAM1	0.000	
35	 HE3	-4.844	4.970	-20.589	 H	1	SAM1	0.000	
36	  H1	-7.014	9.689	-18.148	 H	1	SAM1	0.000	
37	  H2	-6.444	10.920	-17.209	 H	1	SAM1	0.000	
38	  H2	-1.191	5.317	-10.305	 H	1	SAM1	0.000	
39	  H3	-5.821	9.402	-17.046	 H	1	SAM1	0.000	
40	  H8	-2.017	1.841	-15.835	 H	1	SAM1	0.000	
41	 H1'	-0.623	5.322	-14.826	 H	1	SAM1	0.000	
42	 H2'	-0.421	3.155	-16.928	 H	1	SAM1	0.000	
43	 H2'	1.556	4.096	-17.079	 H	1	SAM1	0.000	
44	 H3'	-0.739	4.628	-18.663	 H	1	SAM1	0.000	
45	 H3'	0.854	6.120	-17.960	 H	1	SAM1	0.000	
46	 H4'	-2.177	6.685	-17.143	 H	1	SAM1	0.000	
47	 H61	-2.731	0.287	-11.279	 H	1	SAM1	0.000	
48	 H62	-2.551	1.000	-9.692	 H	1	SAM1	0.000	
49	H5'1	-3.131	4.420	-18.723	 H	1	SAM1	0.000	
50	H5'2	-4.239	5.315	-17.655	 H	1	SAM1	0.000	
@<TRIPOS>BOND
1 1 2 1
2 1 36 1
3 1 37 1
4 1 39 1
5 2 3 1
6 2 5 1
7 2 28 1
8 3 4 ar
9 3 17 ar
10 5 6 1
11 5 29 1
12 5 30 1
13 6 7 1
14 6 31 1
15 6 32 1
16 7 8 1
17 7 9 1
18 8 33 1
19 8 34 1
20 8 35 1
21 9 10 1
22 9 49 1
23 9 50 1
24 10 11 1
25 10 12 1
26 10 46 1
27 11 16 1
28 12 13 1
29 12 14 1
30 12 44 1
31 13 45 1
32 14 15 1
33 14 16 1
34 14 42 1
35 15 43 1
36 16 27 1
37 16 41 1
38 18 19 ar
39 18 23 ar
40 19 20 ar
41 19 38 1
42 20 21 ar
43 21 22 ar
44 21 27 ar
45 22 23 ar
46 22 25 ar
47 23 24 1
48 24 47 1
49 24 48 1
50 25 26 ar
51 26 27 ar
52 26 40 1
@<TRIPOS>SUBSTRUCTURE
1	SAM1	1	GROUP	1 A	SAM
