@<TRIPOS>MOLECULE
4XUC.A
51 53 1 0 0 
SMALL
USER_CHARGES


@<TRIPOS>ATOM
  1 N       -6.1940    10.0740   -17.7010 N.4   1 SAM  -0.8530 
  2 H1      -7.0139     9.6895   -18.1482 H     1 SAM   0.4500 
  3 H2      -6.4442    10.9201   -17.2094 H     1 SAM   0.4500 
  4 H3      -5.8213     9.4017   -17.0458 H     1 SAM   0.4500 
  5 CA      -5.1680    10.3840   -18.7300 C.3   1 SAM   0.3170 
  6 HA      -4.2949    10.7966   -18.2244 H     1 SAM   0.0800 
  7 C       -5.7170    11.3780   -19.7290 C.2   1 SAM   0.9060 
  8 O       -6.8770    11.3010   -20.1480 O.co2 1 SAM  -0.9000 
  9 CB      -4.7960     9.1250   -19.4880 C.3   1 SAM  -0.1600 
 10 HB1     -4.1291     9.3917   -20.3079 H     1 SAM   0.0800 
 11 HB2     -5.7037     8.6747   -19.8898 H     1 SAM   0.0800 
 12 CG      -4.0930     8.1040   -18.5910 C.3   1 SAM  -0.1525 
 13 HG1     -4.7910     7.7740   -17.8216 H     1 SAM   0.0800 
 14 HG2     -3.2341     8.5830   -18.1210 H     1 SAM   0.0800 
 15 SD      -3.5190     6.6570   -19.5160 S.3   1 SAM   0.9775 
 16 CE      -5.0330     5.9800   -20.2240 C.3   1 SAM  -0.2325 
 17 HE1     -5.3607     6.6099   -21.0510 H     1 SAM   0.0800 
 18 HE2     -5.8098     5.9504   -19.4599 H     1 SAM   0.0800 
 19 HE3     -4.8437     4.9705   -20.5890 H     1 SAM   0.0800 
 20 C5'     -3.3100     5.3720   -18.2220 C.3   1 SAM  -0.1525 
 21 H5'1    -3.1310     4.4205   -18.7226 H     1 SAM   0.0800 
 22 H5'2    -4.2393     5.3152   -17.6551 H     1 SAM   0.0800 
 23 C4'     -2.1760     5.5990   -17.2350 C.3   1 SAM   0.2000 
 24 H4'     -2.1771     6.6851   -17.1431 H     1 SAM   0.0800 
 25 O4'     -2.3990     4.9630   -15.9770 O.3   1 SAM  -0.5600 
 26 C3'     -0.8010     5.1430   -17.7040 C.3   1 SAM   0.2000 
 27 H3'     -0.7391     4.6279   -18.6626 H     1 SAM   0.0800 
 28 O3'     -0.0570     6.3500   -17.7630 O.3   1 SAM  -0.6800 
 29 H3'      0.8540     6.1201   -17.9599 H     1 SAM   0.4000 
 30 C2'     -0.3180     4.1910   -16.6050 C.3   1 SAM   0.2000 
 31 H2'     -0.4209     3.1551   -16.9281 H     1 SAM   0.0800 
 32 O2'      1.0550     4.2960   -16.2840 O.3   1 SAM  -0.6800 
 33 H2'      1.2395     3.6619   -15.5872 H     1 SAM   0.4000 
 34 C1'     -1.1730     4.5810   -15.4060 C.3   1 SAM   0.5691 
 35 H1'     -0.6228     5.3223   -14.8265 H     1 SAM   0.0800 
 36 OXT     -4.9830    12.2810   -20.1230 O.co2 1 SAM  -0.9000 
 37 N1      -1.7840     3.2800   -10.4450 N.2   1 SAM  -0.6610 
 38 C2      -1.4010     4.4880   -10.9640 C.2   1 SAM   0.6010 
 39 H2      -1.1910     5.3174   -10.3049 H     1 SAM   0.0600 
 40 N3      -1.2840     4.6440   -12.3270 N.2   1 SAM  -0.6610 
 41 C4      -1.5430     3.5870   -13.1340 C.2   1 SAM   0.5000 
 42 C5      -1.9890     2.3620   -12.6330 C.2   1 SAM   0.4500 
 43 C6      -2.0890     2.2140   -11.2530 C.2   1 SAM   0.6110 
 44 N6      -2.4890     1.0760   -10.6970 N.2   1 SAM  -0.2000 
 45 H62     -2.5514     0.9996    -9.6918 H     1 SAM   0.4000 
 46 H61     -2.7308     0.2870   -11.2794 H     1 SAM   0.4000 
 47 N7      -2.2260     1.5250   -13.7000 N.2   1 SAM  -0.6960 
 48 C8      -1.9330     2.2230   -14.8280 C.3   1 SAM   0.4551 
 49 H81     -2.8229     2.2900   -15.4539 H     1 SAM   0.0800 
 50 H82     -1.1415     1.7111   -15.3754 H     1 SAM   0.0800 
 51 N9      -1.5150     3.4820   -14.4960 N.pl3 1 SAM  -0.7882 
@<TRIPOS>BOND
  1   1   2  1   
  2   1   3  1   
  3   1   4  1   
  4   1   5  1   
  5   5   6  1   
  6   5   7  1   
  7   5   9  1   
  8   7   8  ar  
  9   7  36  ar  
 10   9  10  1   
 11   9  11  1   
 12   9  12  1   
 13  12  13  1   
 14  12  14  1   
 15  12  15  1   
 16  15  16  1   
 17  15  20  1   
 18  16  17  1   
 19  16  18  1   
 20  16  19  1   
 21  20  21  1   
 22  20  22  1   
 23  20  23  1   
 24  23  24  1   
 25  23  25  1   
 26  23  26  1   
 27  25  34  1   
 28  26  27  1   
 29  26  28  1   
 30  26  30  1   
 31  28  29  1   
 32  30  31  1   
 33  30  32  1   
 34  30  34  1   
 35  32  33  1   
 36  34  35  1   
 37  34  51  1   
 38  37  38  2   
 39  37  43  1   
 40  38  39  1   
 41  38  40  1   
 42  40  41  2   
 43  41  42  1   
 44  41  51  1   
 45  42  43  1   
 46  42  47  2   
 47  43  44  2   
 48  44  45  1   
 49  44  46  1   
 50  47  48  1   
 51  48  49  1   
 52  48  50  1   
 53  48  51  1   
@<TRIPOS>SUBSTRUCTURE
  1 SAM  25 GROUP 4 A **** 0

# MOE 2022.02 (io_trps.svl 2020.11)
