# created with PyMOL 2.5.0
@<TRIPOS>MOLECULE
3MB5
27 29 1                 
SMALL
USER_CHARGES
@<TRIPOS>ATOM
1	   N	-18.739	-32.701	-9.753	N.3	1	SAM301	0.000	
2	  CA	-19.019	-32.655	-11.215	C.3	1	SAM301	0.000	
3	   C	-19.193	-34.058	-11.806	C.2	1	SAM301	0.000	
4	   O	-19.005	-35.052	-11.083	O.co2	1	SAM301	0.000	
5	  CB	-17.940	-31.862	-11.946	C.3	1	SAM301	0.000	
6	  CG	-17.995	-30.370	-11.590	C.3	1	SAM301	0.000	
7	  SD	-16.857	-29.392	-12.613	S.3	1	SAM301	0.000	
8	  CE	-15.234	-29.893	-11.959	C.3	1	SAM301	0.000	
9	 C5'	-17.066	-27.742	-11.889	C.3	1	SAM301	0.000	
10	 C4'	-18.407	-27.163	-12.329	C.3	1	SAM301	0.000	
11	 O4'	-18.673	-26.028	-11.511	O.3	1	SAM301	0.000	
12	 C3'	-18.338	-26.649	-13.782	C.3	1	SAM301	0.000	
13	 O3'	-19.402	-27.236	-14.518	O.3	1	SAM301	0.000	
14	 C2'	-18.409	-25.130	-13.599	C.3	1	SAM301	0.000	
15	 O2'	-19.022	-24.490	-14.702	O.3	1	SAM301	0.000	
16	 C1'	-19.242	-25.007	-12.344	C.3	1	SAM301	0.000	
17	 OXT	-19.513	-34.217	-12.989	O.co2	1	SAM301	0.000	
18	  N1	-21.801	-21.429	-9.663	N.2	1	SAM301	0.000	
19	  C2	-22.304	-22.563	-10.273	C.2	1	SAM301	0.000	
20	  N3	-21.459	-23.398	-10.969	N.2	1	SAM301	0.000	
21	  C4	-20.133	-23.099	-11.013	C.2	1	SAM301	0.000	
22	  C5	-19.603	-21.965	-10.403	C.2	1	SAM301	0.000	
23	  C6	-20.473	-21.101	-9.733	C.2	1	SAM301	0.000	
24	  N6	-20.034	-19.998	-9.128	N.pl3	1	SAM301	0.000	
25	  N7	-18.267	-21.912	-10.657	N.2	1	SAM301	0.000	
26	  C8	-17.957	-23.012	-11.394	C.2	1	SAM301	0.000	
27	  N9	-19.100	-23.728	-11.633	N.2	1	SAM301	0.000	
@<TRIPOS>BOND
1 1 2 1
2 2 3 1
3 2 5 1
4 3 4 ar
5 3 17 ar
6 5 6 1
7 6 7 1
8 7 8 1
9 7 9 1
10 9 10 1
11 10 11 1
12 10 12 1
13 11 16 1
14 12 13 1
15 12 14 1
16 14 15 1
17 14 16 1
18 16 27 1
19 18 19 ar
20 18 23 ar
21 19 20 ar
22 20 21 ar
23 21 22 ar
24 21 27 ar
25 22 23 ar
26 22 25 ar
27 23 24 1
28 25 26 ar
29 26 27 ar
@<TRIPOS>SUBSTRUCTURE
1	SAM301	1	GROUP	1 A	SAM
