# created with PyMOL 2.4.0
@<TRIPOS>MOLECULE
temp
50 52 1                 
SMALL
USER_CHARGES
@<TRIPOS>ATOM
1	   N	-18.739	-32.701	-9.753	N.4	1	SAM1	0.000	
2	  CA	-19.019	-32.655	-11.215	C.3	1	SAM1	0.000	
3	   C	-19.193	-34.058	-11.806	C.2	1	SAM1	0.000	
4	   O	-19.005	-35.052	-11.083	O.co2	1	SAM1	0.000	
5	  CB	-17.940	-31.862	-11.946	C.3	1	SAM1	0.000	
6	  CG	-17.995	-30.370	-11.590	C.3	1	SAM1	0.000	
7	  SD	-16.857	-29.392	-12.613	S.3	1	SAM1	0.000	
8	  CE	-15.234	-29.893	-11.959	C.3	1	SAM1	0.000	
9	 C5'	-17.066	-27.742	-11.889	C.3	1	SAM1	0.000	
10	 C4'	-18.407	-27.163	-12.329	C.3	1	SAM1	0.000	
11	 O4'	-18.673	-26.028	-11.511	O.3	1	SAM1	0.000	
12	 C3'	-18.338	-26.649	-13.782	C.3	1	SAM1	0.000	
13	 O3'	-19.402	-27.236	-14.518	O.3	1	SAM1	0.000	
14	 C2'	-18.409	-25.130	-13.599	C.3	1	SAM1	0.000	
15	 O2'	-19.022	-24.490	-14.702	O.3	1	SAM1	0.000	
16	 C1'	-19.242	-25.007	-12.344	C.3	1	SAM1	0.000	
17	 OXT	-19.513	-34.217	-12.989	O.co2	1	SAM1	0.000	
18	  N1	-21.801	-21.429	-9.663	N.2	1	SAM1	0.000	
19	  C2	-22.304	-22.563	-10.273	C.2	1	SAM1	0.000	
20	  N3	-21.459	-23.398	-10.969	N.2	1	SAM1	0.000	
21	  C4	-20.133	-23.099	-11.013	C.2	1	SAM1	0.000	
22	  C5	-19.603	-21.965	-10.403	C.2	1	SAM1	0.000	
23	  C6	-20.473	-21.101	-9.733	C.2	1	SAM1	0.000	
24	  N6	-20.034	-19.998	-9.128	N.pl3	1	SAM1	0.000	
25	  N7	-18.267	-21.912	-10.657	N.2	1	SAM1	0.000	
26	  C8	-17.957	-23.012	-11.394	C.2	1	SAM1	0.000	
27	  N9	-19.100	-23.728	-11.633	N.2	1	SAM1	0.000	
28	  HA	-19.968	-32.137	-11.357	 H	1	SAM1	0.000	
29	 HB1	-18.085	-31.975	-13.020	 H	1	SAM1	0.000	
30	 HB2	-16.962	-32.256	-11.668	 H	1	SAM1	0.000	
31	 HG1	-17.722	-30.247	-10.542	 H	1	SAM1	0.000	
32	 HG2	-19.011	-30.007	-11.746	 H	1	SAM1	0.000	
33	 HE1	-14.986	-30.888	-12.327	 H	1	SAM1	0.000	
34	 HE2	-15.270	-29.907	-10.870	 H	1	SAM1	0.000	
35	 HE3	-14.475	-29.184	-12.288	 H	1	SAM1	0.000	
36	  H1	-17.863	-33.177	-9.593	 H	1	SAM1	0.000	
37	  H2	-19.483	-33.197	-9.283	 H	1	SAM1	0.000	
38	  H2	-23.357	-22.793	-10.204	 H	1	SAM1	0.000	
39	  H3	-18.682	-31.760	-9.391	 H	1	SAM1	0.000	
40	  H8	-16.968	-23.278	-11.736	 H	1	SAM1	0.000	
41	 H1'	-20.303	-25.085	-12.581	 H	1	SAM1	0.000	
42	 H2'	-17.432	-24.653	-13.528	 H	1	SAM1	0.000	
43	 H2'	-18.471	-24.649	-15.472	 H	1	SAM1	0.000	
44	 H3'	-17.449	-26.909	-14.357	 H	1	SAM1	0.000	
45	 H3'	-19.397	-26.848	-15.396	 H	1	SAM1	0.000	
46	 H4'	-19.169	-27.939	-12.247	 H	1	SAM1	0.000	
47	 H61	-19.050	-19.769	-9.147	 H	1	SAM1	0.000	
48	 H62	-20.685	-19.391	-8.651	 H	1	SAM1	0.000	
49	H5'1	-16.260	-27.091	-12.228	 H	1	SAM1	0.000	
50	H5'2	-17.041	-27.816	-10.802	 H	1	SAM1	0.000	
@<TRIPOS>BOND
1 1 2 1
2 1 36 1
3 1 37 1
4 1 39 1
5 2 3 1
6 2 5 1
7 2 28 1
8 3 4 ar
9 3 17 ar
10 5 6 1
11 5 29 1
12 5 30 1
13 6 7 1
14 6 31 1
15 6 32 1
16 7 8 1
17 7 9 1
18 8 33 1
19 8 34 1
20 8 35 1
21 9 10 1
22 9 49 1
23 9 50 1
24 10 11 1
25 10 12 1
26 10 46 1
27 11 16 1
28 12 13 1
29 12 14 1
30 12 44 1
31 13 45 1
32 14 15 1
33 14 16 1
34 14 42 1
35 15 43 1
36 16 27 1
37 16 41 1
38 18 19 ar
39 18 23 ar
40 19 20 ar
41 19 38 1
42 20 21 ar
43 21 22 ar
44 21 27 ar
45 22 23 ar
46 22 25 ar
47 23 24 1
48 24 47 1
49 24 48 1
50 25 26 ar
51 26 27 ar
52 26 40 1
@<TRIPOS>SUBSTRUCTURE
1	SAM1	1	GROUP	1 A	SAM
