@<TRIPOS>MOLECULE
3MB5.A
51 53 1 0 0 
SMALL
USER_CHARGES


@<TRIPOS>ATOM
  1 N      -18.7390   -32.7010    -9.7530 N.4   1 SAM  -0.8530 
  2 H1     -17.8628   -33.1771    -9.5929 H     1 SAM   0.4500 
  3 H2     -19.4826   -33.1974    -9.2832 H     1 SAM   0.4500 
  4 H3     -18.6817   -31.7597    -9.3914 H     1 SAM   0.4500 
  5 CA     -19.0190   -32.6550   -11.2150 C.3   1 SAM   0.3170 
  6 HA     -19.9676   -32.1372   -11.3568 H     1 SAM   0.0800 
  7 C      -19.1930   -34.0580   -11.8060 C.2   1 SAM   0.9060 
  8 O      -19.0050   -35.0520   -11.0830 O.co2 1 SAM  -0.9000 
  9 CB     -17.9400   -31.8620   -11.9460 C.3   1 SAM  -0.1600 
 10 HB1    -18.0852   -31.9747   -13.0204 H     1 SAM   0.0800 
 11 HB2    -16.9624   -32.2560   -11.6682 H     1 SAM   0.0800 
 12 CG     -17.9950   -30.3700   -11.5900 C.3   1 SAM  -0.1525 
 13 HG1    -17.7222   -30.2468   -10.5419 H     1 SAM   0.0800 
 14 HG2    -19.0108   -30.0070   -11.7461 H     1 SAM   0.0800 
 15 SD     -16.8570   -29.3920   -12.6130 S.3   1 SAM   0.9775 
 16 CE     -15.2340   -29.8930   -11.9590 C.3   1 SAM  -0.2325 
 17 HE1    -14.9855   -30.8884   -12.3272 H     1 SAM   0.0800 
 18 HE2    -15.2698   -29.9070   -10.8697 H     1 SAM   0.0800 
 19 HE3    -14.4748   -29.1837   -12.2885 H     1 SAM   0.0800 
 20 C5'    -17.0660   -27.7420   -11.8890 C.3   1 SAM  -0.1525 
 21 H5'1   -16.2599   -27.0912   -12.2278 H     1 SAM   0.0800 
 22 H5'2   -17.0407   -27.8158   -10.8018 H     1 SAM   0.0800 
 23 C4'    -18.4070   -27.1630   -12.3290 C.3   1 SAM   0.2000 
 24 H4'    -19.1685   -27.9386   -12.2474 H     1 SAM   0.0800 
 25 O4'    -18.6730   -26.0280   -11.5110 O.3   1 SAM  -0.5600 
 26 C3'    -18.3380   -26.6490   -13.7820 C.3   1 SAM   0.2000 
 27 H3'    -17.4491   -26.9087   -14.3569 H     1 SAM   0.0800 
 28 O3'    -19.4020   -27.2360   -14.5180 O.3   1 SAM  -0.6800 
 29 H3'    -19.3966   -26.8476   -15.3959 H     1 SAM   0.4000 
 30 C2'    -18.4090   -25.1300   -13.5990 C.3   1 SAM   0.2000 
 31 H2'    -17.4316   -24.6528   -13.5275 H     1 SAM   0.0800 
 32 O2'    -19.0220   -24.4900   -14.7020 O.3   1 SAM  -0.6800 
 33 H2'    -19.0773   -23.5531   -14.5000 H     1 SAM   0.4000 
 34 C1'    -19.2420   -25.0070   -12.3440 C.3   1 SAM   0.5691 
 35 H1'    -20.3030   -25.0854   -12.5813 H     1 SAM   0.0800 
 36 OXT    -19.5130   -34.2170   -12.9890 O.co2 1 SAM  -0.9000 
 37 N1     -21.8010   -21.4290    -9.6630 N.2   1 SAM  -0.6610 
 38 C2     -22.3040   -22.5630   -10.2730 C.2   1 SAM   0.6010 
 39 H2     -23.3569   -22.7933   -10.2038 H     1 SAM   0.0600 
 40 N3     -21.4590   -23.3980   -10.9690 N.2   1 SAM  -0.6610 
 41 C4     -20.1330   -23.0990   -11.0130 C.2   1 SAM   0.5000 
 42 C5     -19.6030   -21.9650   -10.4030 C.2   1 SAM   0.4500 
 43 C6     -20.4730   -21.1010    -9.7330 C.2   1 SAM   0.6110 
 44 N6     -20.0340   -19.9980    -9.1280 N.2   1 SAM  -0.2000 
 45 H62    -20.6848   -19.3907    -8.6507 H     1 SAM   0.4000 
 46 H61    -19.0504   -19.7692    -9.1467 H     1 SAM   0.4000 
 47 N7     -18.2670   -21.9120   -10.6570 N.2   1 SAM  -0.6960 
 48 C8     -17.9570   -23.0120   -11.3940 C.3   1 SAM   0.4551 
 49 H81    -17.2467   -23.6306   -10.8454 H     1 SAM   0.0800 
 50 H82    -17.5145   -22.7039   -12.3413 H     1 SAM   0.0800 
 51 N9     -19.1000   -23.7280   -11.6330 N.pl3 1 SAM  -0.7882 
@<TRIPOS>BOND
  1   1   2  1   
  2   1   3  1   
  3   1   4  1   
  4   1   5  1   
  5   5   6  1   
  6   5   7  1   
  7   5   9  1   
  8   7   8  ar  
  9   7  36  ar  
 10   9  10  1   
 11   9  11  1   
 12   9  12  1   
 13  12  13  1   
 14  12  14  1   
 15  12  15  1   
 16  15  16  1   
 17  15  20  1   
 18  16  17  1   
 19  16  18  1   
 20  16  19  1   
 21  20  21  1   
 22  20  22  1   
 23  20  23  1   
 24  23  24  1   
 25  23  25  1   
 26  23  26  1   
 27  25  34  1   
 28  26  27  1   
 29  26  28  1   
 30  26  30  1   
 31  28  29  1   
 32  30  31  1   
 33  30  32  1   
 34  30  34  1   
 35  32  33  1   
 36  34  35  1   
 37  34  51  1   
 38  37  38  2   
 39  37  43  1   
 40  38  39  1   
 41  38  40  1   
 42  40  41  2   
 43  41  42  1   
 44  41  51  1   
 45  42  43  1   
 46  42  47  2   
 47  43  44  2   
 48  44  45  1   
 49  44  46  1   
 50  47  48  1   
 51  48  49  1   
 52  48  50  1   
 53  48  51  1   
@<TRIPOS>SUBSTRUCTURE
  1 SAM  25 GROUP 4 A **** 0

# MOE 2022.02 (io_trps.svl 2020.11)
