# created with PyMOL 2.5.0
@<TRIPOS>MOLECULE
4CTK
27 29 1                 
SMALL
USER_CHARGES
@<TRIPOS>ATOM
1	   N	38.072	43.321	-7.017	N.3	1	SAM1263	0.000	
2	  CA	37.178	44.383	-7.501	C.3	1	SAM1263	0.000	
3	   C	37.970	45.486	-8.204	C.2	1	SAM1263	0.000	
4	   O	39.220	45.339	-8.282	O.co2	1	SAM1263	0.000	
5	  CB	36.335	44.907	-6.331	C.3	1	SAM1263	0.000	
6	  CG	35.392	43.781	-5.859	C.3	1	SAM1263	0.000	
7	  SD	34.161	44.355	-4.675	S.3	1	SAM1263	0.000	
8	  CE	35.018	44.298	-3.119	C.3	1	SAM1263	0.000	
9	 C5'	33.205	42.874	-4.580	C.3	1	SAM1263	0.000	
10	 C4'	32.154	42.813	-5.707	C.3	1	SAM1263	0.000	
11	 O4'	31.476	41.559	-5.538	O.3	1	SAM1263	0.000	
12	 C3'	31.076	43.909	-5.719	C.3	1	SAM1263	0.000	
13	 O3'	31.121	44.621	-6.957	O.3	1	SAM1263	0.000	
14	 C2'	29.758	43.139	-5.533	C.3	1	SAM1263	0.000	
15	 O2'	28.727	43.729	-6.319	O.3	1	SAM1263	0.000	
16	 C1'	30.146	41.751	-6.005	C.3	1	SAM1263	0.000	
17	 OXT	37.318	46.414	-8.740	O.co2	1	SAM1263	0.000	
18	  N1	27.968	37.191	-7.079	N.2	1	SAM1263	0.000	
19	  C2	28.719	38.015	-7.825	C.2	1	SAM1263	0.000	
20	  N3	29.243	39.203	-7.493	N.2	1	SAM1263	0.000	
21	  C4	28.961	39.513	-6.211	C.2	1	SAM1263	0.000	
22	  C5	28.216	38.756	-5.320	C.2	1	SAM1263	0.000	
23	  C6	27.677	37.545	-5.805	C.2	1	SAM1263	0.000	
24	  N6	26.821	36.797	-5.100	N.pl3	1	SAM1263	0.000	
25	  N7	28.124	39.390	-4.091	N.2	1	SAM1263	0.000	
26	  C8	28.789	40.506	-4.267	C.2	1	SAM1263	0.000	
27	  N9	29.331	40.642	-5.521	N.2	1	SAM1263	0.000	
@<TRIPOS>BOND
1 1 2 1
2 2 3 1
3 2 5 1
4 3 4 ar
5 3 17 ar
6 5 6 1
7 6 7 1
8 7 8 1
9 7 9 1
10 9 10 1
11 10 11 1
12 10 12 1
13 11 16 1
14 12 13 1
15 12 14 1
16 14 15 1
17 14 16 1
18 16 27 1
19 18 19 ar
20 18 23 ar
21 19 20 ar
22 20 21 ar
23 21 22 ar
24 21 27 ar
25 22 23 ar
26 22 25 ar
27 23 24 1
28 25 26 ar
29 26 27 ar
@<TRIPOS>SUBSTRUCTURE
1	SAM1263	1	GROUP	1 A	SAM
