# created with PyMOL 2.5.0
@<TRIPOS>MOLECULE
4CTK
10 11 1                 
SMALL
USER_CHARGES
@<TRIPOS>ATOM
1	 CAB	27.571	51.348	13.321	C.2	1	SVN1266	0.000	
2	 CAC	27.726	50.100	12.620	C.2	1	SVN1266	0.000	
3	 CAD	26.357	52.568	8.965	C.2	1	SVN1266	0.000	
4	 CAH	26.764	51.281	9.237	C.2	1	SVN1266	0.000	
5	 CAI	26.925	52.373	11.342	C.2	1	SVN1266	0.000	
6	 CAJ	27.096	51.143	10.652	C.2	1	SVN1266	0.000	
7	 NAA	26.936	50.247	8.360	N.pl3	1	SVN1266	0.000	
8	 NAE	27.188	52.482	12.692	N.2	1	SVN1266	0.000	
9	 NAF	27.510	49.995	11.294	N.2	1	SVN1266	0.000	
10	 SAG	26.371	53.615	10.322	S.2	1	SVN1266	0.000	
@<TRIPOS>BOND
1 1 2 ar
2 1 8 ar
3 2 9 ar
4 3 4 ar
5 3 10 ar
6 4 6 ar
7 4 7 1
8 5 6 ar
9 5 8 ar
10 5 10 ar
11 6 9 ar
@<TRIPOS>SUBSTRUCTURE
1	SVN1266	1	GROUP	1 A	SVN
