# created with PyMOL 2.5.0
@<TRIPOS>MOLECULE
4CTK
20 22 1                 
SMALL
USER_CHARGES
@<TRIPOS>ATOM
1	 CAB	30.224	51.433	8.641	C.2	1	SVN1264	0.000	
2	 CAB	30.264	51.591	9.188	C.2	1	SVN1264	0.000	
3	 CAC	29.861	52.828	8.555	C.2	1	SVN1264	0.000	
4	 CAC	30.582	50.746	10.308	C.2	1	SVN1264	0.000	
5	 CAD	30.815	52.807	13.105	C.2	1	SVN1264	0.000	
6	 CAD	30.050	54.649	12.734	C.2	1	SVN1264	0.000	
7	 CAH	30.342	53.697	12.168	C.2	1	SVN1264	0.000	
8	 CAH	30.337	53.333	12.973	C.2	1	SVN1264	0.000	
9	 CAI	30.626	51.689	10.934	C.2	1	SVN1264	0.000	
10	 CAI	30.078	53.429	10.614	C.2	1	SVN1264	0.000	
11	 CAJ	30.236	53.062	10.855	C.2	1	SVN1264	0.000	
12	 CAJ	30.376	52.583	11.723	C.2	1	SVN1264	0.000	
13	 NAA	29.962	54.984	12.399	N.pl3	1	SVN1264	0.000	
14	 NAA	30.483	52.727	14.185	N.pl3	1	SVN1264	0.000	
15	 NAE	30.608	50.862	9.821	N.2	1	SVN1264	0.000	
16	 NAE	30.019	52.926	9.329	N.2	1	SVN1264	0.000	
17	 NAF	29.855	53.646	9.656	N.2	1	SVN1264	0.000	
18	 NAF	30.643	51.238	11.577	N.2	1	SVN1264	0.000	
19	 SAG	31.124	51.236	12.528	S.2	1	SVN1264	0.000	
20	 SAG	29.795	55.056	11.086	S.2	1	SVN1264	0.000	
@<TRIPOS>BOND
1 1 3 ar
2 1 15 ar
3 2 4 ar
4 2 16 ar
5 3 17 ar
6 4 18 ar
7 5 7 ar
8 5 19 ar
9 6 8 ar
10 6 20 ar
11 7 11 ar
12 7 13 1
13 8 12 ar
14 8 14 1
15 9 11 ar
16 9 15 ar
17 9 19 ar
18 10 12 ar
19 10 16 ar
20 10 20 ar
21 11 17 ar
22 12 18 ar
@<TRIPOS>SUBSTRUCTURE
1	SVN1264	1	GROUP	1 A	SVN
