# created with PyMOL 2.5.0
@<TRIPOS>MOLECULE
2NYU
27 29 1                 
SMALL
USER_CHARGES
@<TRIPOS>ATOM
1	   N	49.084	19.569	16.895	N.3	1	SAM201	0.000	
2	  CA	49.750	18.231	16.891	C.3	1	SAM201	0.000	
3	   C	49.199	17.387	18.001	C.2	1	SAM201	0.000	
4	   O	49.466	16.159	18.057	O.co2	1	SAM201	0.000	
5	  CB	51.273	18.322	17.077	C.3	1	SAM201	0.000	
6	  CG	51.855	18.987	15.818	C.3	1	SAM201	0.000	
7	  SD	53.690	18.954	15.783	S.3	1	SAM201	0.000	
8	  CE	54.021	20.215	17.023	C.3	1	SAM201	0.000	
9	 C5'	54.128	19.849	14.265	C.3	1	SAM201	0.000	
10	 C4'	53.783	19.005	13.031	C.3	1	SAM201	0.000	
11	 O4'	53.775	19.822	11.837	O.3	1	SAM201	0.000	
12	 C3'	54.802	17.878	12.754	C.3	1	SAM201	0.000	
13	 O3'	54.152	16.653	12.979	O.3	1	SAM201	0.000	
14	 C2'	55.156	18.096	11.256	C.3	1	SAM201	0.000	
15	 O2'	55.381	16.884	10.526	O.3	1	SAM201	0.000	
16	 C1'	53.974	18.949	10.753	C.3	1	SAM201	0.000	
17	 OXT	48.422	17.917	18.846	O.co2	1	SAM201	0.000	
18	  N1	52.563	19.871	5.861	N.2	1	SAM201	0.000	
19	  C2	52.016	19.015	6.757	C.2	1	SAM201	0.000	
20	  N3	52.531	18.939	8.051	N.2	1	SAM201	0.000	
21	  C4	53.626	19.662	8.384	C.2	1	SAM201	0.000	
22	  C5	54.224	20.538	7.492	C.2	1	SAM201	0.000	
23	  C6	53.697	20.601	6.145	C.2	1	SAM201	0.000	
24	  N6	54.202	21.395	5.190	N.pl3	1	SAM201	0.000	
25	  N7	55.267	21.130	8.131	N.2	1	SAM201	0.000	
26	  C8	55.347	20.637	9.400	C.2	1	SAM201	0.000	
27	  N9	54.294	19.740	9.575	N.2	1	SAM201	0.000	
@<TRIPOS>BOND
1 1 2 1
2 2 3 1
3 2 5 1
4 3 4 ar
5 3 17 ar
6 5 6 1
7 6 7 1
8 7 8 1
9 7 9 1
10 9 10 1
11 10 11 1
12 10 12 1
13 11 16 1
14 12 13 1
15 12 14 1
16 14 15 1
17 14 16 1
18 16 27 1
19 18 19 ar
20 18 23 ar
21 19 20 ar
22 20 21 ar
23 21 22 ar
24 21 27 ar
25 22 23 ar
26 22 25 ar
27 23 24 1
28 25 26 ar
29 26 27 ar
@<TRIPOS>SUBSTRUCTURE
1	SAM201	1	GROUP	1 A	SAM
