@<TRIPOS>MOLECULE
2NYU.A
51 53 1 0 0 
SMALL
USER_CHARGES


@<TRIPOS>ATOM
  1 N       49.0840    19.5690    16.8950 N.4   1 SAM  -0.8530 
  2 H1      49.2423    20.0212    17.7841 H     1 SAM   0.4500 
  3 H2      48.0915    19.4515    16.7491 H     1 SAM   0.4500 
  4 H3      49.4681    20.1385    16.1545 H     1 SAM   0.4500 
  5 CA      49.7500    18.2310    16.8910 C.3   1 SAM   0.3170 
  6 HA      49.5492    17.7888    15.9152 H     1 SAM   0.0800 
  7 C       49.1990    17.3870    18.0010 C.2   1 SAM   0.9060 
  8 O       49.4660    16.1590    18.0570 O.co2 1 SAM  -0.9000 
  9 CB      51.2730    18.3220    17.0770 C.3   1 SAM  -0.1600 
 10 HB1     51.6932    17.3236    17.1983 H     1 SAM   0.0800 
 11 HB2     51.5051    18.9231    17.9562 H     1 SAM   0.0800 
 12 CG      51.8550    18.9870    15.8180 C.3   1 SAM  -0.1525 
 13 HG1     51.5243    20.0252    15.7875 H     1 SAM   0.0800 
 14 HG2     51.4800    18.4603    14.9405 H     1 SAM   0.0800 
 15 SD      53.6900    18.9540    15.7830 S.3   1 SAM   0.9775 
 16 CE      54.0210    20.2150    17.0230 C.3   1 SAM  -0.2325 
 17 HE1     53.7997    19.8175    18.0135 H     1 SAM   0.0800 
 18 HE2     53.3935    21.0856    16.8324 H     1 SAM   0.0800 
 19 HE3     55.0704    20.5058    16.9743 H     1 SAM   0.0800 
 20 C5'     54.1280    19.8490    14.2650 C.3   1 SAM  -0.1525 
 21 H5'1    55.1972    20.0609    14.2683 H     1 SAM   0.0800 
 22 H5'2    53.5721    20.7858    14.2268 H     1 SAM   0.0800 
 23 C4'     53.7830    19.0050    13.0310 C.3   1 SAM   0.2000 
 24 H4'     52.8056    18.5769    13.2538 H     1 SAM   0.0800 
 25 O4'     53.7750    19.8220    11.8370 O.3   1 SAM  -0.5600 
 26 C3'     54.8020    17.8780    12.7540 C.3   1 SAM   0.2000 
 27 H3'     55.6960    17.8800    13.3776 H     1 SAM   0.0800 
 28 O3'     54.1520    16.6530    12.9790 O.3   1 SAM  -0.6800 
 29 H3'     54.7590    15.9522    12.7297 H     1 SAM   0.4000 
 30 C2'     55.1560    18.0960    11.2560 C.3   1 SAM   0.2000 
 31 H2'     56.1154    18.5922    11.1095 H     1 SAM   0.0800 
 32 O2'     55.3810    16.8840    10.5260 O.3   1 SAM  -0.6800 
 33 H2'     54.5820    16.3554    10.5876 H     1 SAM   0.4000 
 34 C1'     53.9740    18.9490    10.7530 C.3   1 SAM   0.5691 
 35 H1'     53.1227    18.3329    10.4635 H     1 SAM   0.0800 
 36 OXT     48.4220    17.9170    18.8460 O.co2 1 SAM  -0.9000 
 37 N1      52.5630    19.8710     5.8610 N.2   1 SAM  -0.6610 
 38 C2      52.0160    19.0150     6.7570 C.2   1 SAM   0.6010 
 39 H2      51.1819    18.3920     6.4697 H     1 SAM   0.0600 
 40 N3      52.5310    18.9390     8.0510 N.2   1 SAM  -0.6610 
 41 C4      53.6260    19.6620     8.3840 C.2   1 SAM   0.5000 
 42 C5      54.2240    20.5380     7.4920 C.2   1 SAM   0.4500 
 43 C6      53.6970    20.6010     6.1450 C.2   1 SAM   0.6110 
 44 N6      54.2020    21.3950     5.1900 N.2   1 SAM  -0.2000 
 45 H62     53.7928    21.3973     4.2666 H     1 SAM   0.4000 
 46 H61     54.9916    21.9908     5.3940 H     1 SAM   0.4000 
 47 N7      55.2670    21.1300     8.1310 N.2   1 SAM  -0.6960 
 48 C8      55.3470    20.6370     9.4000 C.3   1 SAM   0.4551 
 49 H81     55.2644    21.4511    10.1201 H     1 SAM   0.0800 
 50 H82     56.2985    20.1238     9.5393 H     1 SAM   0.0800 
 51 N9      54.2940    19.7400     9.5750 N.pl3 1 SAM  -0.7882 
@<TRIPOS>BOND
  1   1   2  1   
  2   1   3  1   
  3   1   4  1   
  4   1   5  1   
  5   5   6  1   
  6   5   7  1   
  7   5   9  1   
  8   7   8  ar  
  9   7  36  ar  
 10   9  10  1   
 11   9  11  1   
 12   9  12  1   
 13  12  13  1   
 14  12  14  1   
 15  12  15  1   
 16  15  16  1   
 17  15  20  1   
 18  16  17  1   
 19  16  18  1   
 20  16  19  1   
 21  20  21  1   
 22  20  22  1   
 23  20  23  1   
 24  23  24  1   
 25  23  25  1   
 26  23  26  1   
 27  25  34  1   
 28  26  27  1   
 29  26  28  1   
 30  26  30  1   
 31  28  29  1   
 32  30  31  1   
 33  30  32  1   
 34  30  34  1   
 35  32  33  1   
 36  34  35  1   
 37  34  51  1   
 38  37  38  2   
 39  37  43  1   
 40  38  39  1   
 41  38  40  1   
 42  40  41  2   
 43  41  42  1   
 44  41  51  1   
 45  42  43  1   
 46  42  47  2   
 47  43  44  2   
 48  44  45  1   
 49  44  46  1   
 50  47  48  1   
 51  48  49  1   
 52  48  50  1   
 53  48  51  1   
@<TRIPOS>SUBSTRUCTURE
  1 SAM  25 GROUP 4 A **** 0

# MOE 2022.02 (io_trps.svl 2020.11)
