# created with PyMOL 2.4.0
@<TRIPOS>MOLECULE
temp
50 52 1                 
SMALL
USER_CHARGES
@<TRIPOS>ATOM
1	   N	49.084	19.569	16.895	N.4	1	SAM1	0.000	
2	  CA	49.750	18.231	16.891	C.3	1	SAM1	0.000	
3	   C	49.199	17.387	18.001	C.2	1	SAM1	0.000	
4	   O	49.466	16.159	18.057	O.co2	1	SAM1	0.000	
5	  CB	51.273	18.322	17.077	C.3	1	SAM1	0.000	
6	  CG	51.855	18.987	15.818	C.3	1	SAM1	0.000	
7	  SD	53.690	18.954	15.783	S.3	1	SAM1	0.000	
8	  CE	54.021	20.215	17.023	C.3	1	SAM1	0.000	
9	 C5'	54.128	19.849	14.265	C.3	1	SAM1	0.000	
10	 C4'	53.783	19.005	13.031	C.3	1	SAM1	0.000	
11	 O4'	53.775	19.822	11.837	O.3	1	SAM1	0.000	
12	 C3'	54.802	17.878	12.754	C.3	1	SAM1	0.000	
13	 O3'	54.152	16.653	12.979	O.3	1	SAM1	0.000	
14	 C2'	55.156	18.096	11.256	C.3	1	SAM1	0.000	
15	 O2'	55.381	16.884	10.526	O.3	1	SAM1	0.000	
16	 C1'	53.974	18.949	10.753	C.3	1	SAM1	0.000	
17	 OXT	48.422	17.917	18.846	O.co2	1	SAM1	0.000	
18	  N1	52.563	19.871	5.861	N.2	1	SAM1	0.000	
19	  C2	52.016	19.015	6.757	C.2	1	SAM1	0.000	
20	  N3	52.531	18.939	8.051	N.2	1	SAM1	0.000	
21	  C4	53.626	19.662	8.384	C.2	1	SAM1	0.000	
22	  C5	54.224	20.538	7.492	C.2	1	SAM1	0.000	
23	  C6	53.697	20.601	6.145	C.2	1	SAM1	0.000	
24	  N6	54.202	21.395	5.190	N.pl3	1	SAM1	0.000	
25	  N7	55.267	21.130	8.131	N.2	1	SAM1	0.000	
26	  C8	55.347	20.637	9.400	C.2	1	SAM1	0.000	
27	  N9	54.294	19.740	9.575	N.2	1	SAM1	0.000	
28	  HA	49.549	17.789	15.915	 H	1	SAM1	0.000	
29	 HB1	51.693	17.324	17.198	 H	1	SAM1	0.000	
30	 HB2	51.505	18.923	17.956	 H	1	SAM1	0.000	
31	 HG1	51.524	20.025	15.788	 H	1	SAM1	0.000	
32	 HG2	51.480	18.460	14.941	 H	1	SAM1	0.000	
33	 HE1	53.800	19.817	18.014	 H	1	SAM1	0.000	
34	 HE2	53.394	21.086	16.832	 H	1	SAM1	0.000	
35	 HE3	55.070	20.506	16.974	 H	1	SAM1	0.000	
36	  H1	49.242	20.021	17.784	 H	1	SAM1	0.000	
37	  H2	48.091	19.451	16.749	 H	1	SAM1	0.000	
38	  H2	51.182	18.392	6.470	 H	1	SAM1	0.000	
39	  H3	49.468	20.139	16.154	 H	1	SAM1	0.000	
40	  H8	56.093	20.895	10.137	 H	1	SAM1	0.000	
41	 H1'	53.123	18.333	10.464	 H	1	SAM1	0.000	
42	 H2'	56.115	18.592	11.109	 H	1	SAM1	0.000	
43	 H2'	56.128	16.436	10.930	 H	1	SAM1	0.000	
44	 H3'	55.696	17.880	13.378	 H	1	SAM1	0.000	
45	 H3'	54.759	15.952	12.730	 H	1	SAM1	0.000	
46	 H4'	52.806	18.577	13.254	 H	1	SAM1	0.000	
47	 H61	54.992	21.991	5.394	 H	1	SAM1	0.000	
48	 H62	53.793	21.397	4.267	 H	1	SAM1	0.000	
49	H5'1	55.197	20.061	14.268	 H	1	SAM1	0.000	
50	H5'2	53.572	20.786	14.227	 H	1	SAM1	0.000	
@<TRIPOS>BOND
1 1 2 1
2 1 36 1
3 1 37 1
4 1 39 1
5 2 3 1
6 2 5 1
7 2 28 1
8 3 4 ar
9 3 17 ar
10 5 6 1
11 5 29 1
12 5 30 1
13 6 7 1
14 6 31 1
15 6 32 1
16 7 8 1
17 7 9 1
18 8 33 1
19 8 34 1
20 8 35 1
21 9 10 1
22 9 49 1
23 9 50 1
24 10 11 1
25 10 12 1
26 10 46 1
27 11 16 1
28 12 13 1
29 12 14 1
30 12 44 1
31 13 45 1
32 14 15 1
33 14 16 1
34 14 42 1
35 15 43 1
36 16 27 1
37 16 41 1
38 18 19 ar
39 18 23 ar
40 19 20 ar
41 19 38 1
42 20 21 ar
43 21 22 ar
44 21 27 ar
45 22 23 ar
46 22 25 ar
47 23 24 1
48 24 47 1
49 24 48 1
50 25 26 ar
51 26 27 ar
52 26 40 1
@<TRIPOS>SUBSTRUCTURE
1	SAM1	1	GROUP	1 A	SAM
