# created with PyMOL 2.5.0
@<TRIPOS>MOLECULE
5T0K
27 29 1                 
SMALL
USER_CHARGES
@<TRIPOS>ATOM
1	   N	-61.088	-15.655	-1.561	N.3	1	SAM1304	0.000	
2	  CA	-62.042	-14.546	-1.438	C.3	1	SAM1304	0.000	
3	   C	-62.546	-14.087	-2.806	C.2	1	SAM1304	0.000	
4	   O	-62.174	-14.669	-3.831	O.co2	1	SAM1304	0.000	
5	  CB	-61.443	-13.398	-0.616	C.3	1	SAM1304	0.000	
6	  CG	-61.559	-13.601	0.892	C.3	1	SAM1304	0.000	
7	  SD	-63.262	-13.352	1.465	S.3	1	SAM1304	0.000	
8	  CE	-63.009	-12.250	2.886	C.3	1	SAM1304	0.000	
9	 C5'	-63.560	-14.882	2.393	C.3	1	SAM1304	0.000	
10	 C4'	-63.971	-16.055	1.522	C.3	1	SAM1304	0.000	
11	 O4'	-62.838	-16.576	0.846	O.3	1	SAM1304	0.000	
12	 C3'	-64.495	-17.183	2.386	C.3	1	SAM1304	0.000	
13	 O3'	-65.869	-17.034	2.655	O.3	1	SAM1304	0.000	
14	 C2'	-64.197	-18.382	1.520	C.3	1	SAM1304	0.000	
15	 O2'	-65.161	-18.425	0.498	O.3	1	SAM1304	0.000	
16	 C1'	-62.866	-17.994	0.912	C.3	1	SAM1304	0.000	
17	 OXT	-63.342	-13.141	-2.926	O.co2	1	SAM1304	0.000	
18	  N1	-60.224	-21.964	3.015	N.2	1	SAM1304	0.000	
19	  C2	-61.271	-22.012	2.116	C.2	1	SAM1304	0.000	
20	  N3	-61.861	-20.853	1.655	N.2	1	SAM1304	0.000	
21	  C4	-61.385	-19.665	2.104	C.2	1	SAM1304	0.000	
22	  C5	-60.336	-19.586	3.019	C.2	1	SAM1304	0.000	
23	  C6	-59.747	-20.760	3.483	C.2	1	SAM1304	0.000	
24	  N6	-58.737	-20.760	4.350	N.pl3	1	SAM1304	0.000	
25	  N7	-60.102	-18.273	3.279	N.2	1	SAM1304	0.000	
26	  C8	-60.976	-17.542	2.557	C.2	1	SAM1304	0.000	
27	  N9	-61.775	-18.389	1.819	N.2	1	SAM1304	0.000	
@<TRIPOS>BOND
1 1 2 1
2 2 3 1
3 2 5 1
4 3 4 ar
5 3 17 ar
6 5 6 1
7 6 7 1
8 7 8 1
9 7 9 1
10 9 10 1
11 10 11 1
12 10 12 1
13 11 16 1
14 12 13 1
15 12 14 1
16 14 15 1
17 14 16 1
18 16 27 1
19 18 19 ar
20 18 23 ar
21 19 20 ar
22 20 21 ar
23 21 22 ar
24 21 27 ar
25 22 23 ar
26 22 25 ar
27 23 24 1
28 25 26 ar
29 26 27 ar
@<TRIPOS>SUBSTRUCTURE
1	SAM1304	1	GROUP	1 A	SAM
