@<TRIPOS>MOLECULE
5T0K.A
51 53 1 0 0 
SMALL
USER_CHARGES


@<TRIPOS>ATOM
  1 N      -61.0880   -15.6550    -1.5610 N.4   1 SAM  -0.8530 
  2 H1     -60.2699   -15.3412    -2.0633 H     1 SAM   0.4500 
  3 H2     -61.5203   -16.4168    -2.0640 H     1 SAM   0.4500 
  4 H3     -60.8175   -15.9701    -0.6403 H     1 SAM   0.4500 
  5 CA     -62.0420   -14.5460    -1.4380 C.3   1 SAM   0.3170 
  6 HA     -62.9150   -14.9064    -0.8939 H     1 SAM   0.0800 
  7 C      -62.5460   -14.0870    -2.8060 C.2   1 SAM   0.9060 
  8 O      -62.1740   -14.6690    -3.8310 O.co2 1 SAM  -0.9000 
  9 CB     -61.4430   -13.3980    -0.6160 C.3   1 SAM  -0.1600 
 10 HB1    -61.9625   -12.4770    -0.8807 H     1 SAM   0.0800 
 11 HB2    -60.3873   -13.3058    -0.8711 H     1 SAM   0.0800 
 12 CG     -61.5590   -13.6010     0.8920 C.3   1 SAM  -0.1525 
 13 HG1    -60.9072   -12.8880     1.3969 H     1 SAM   0.0800 
 14 HG2    -61.2469   -14.6160     1.1381 H     1 SAM   0.0800 
 15 SD     -63.2620   -13.3520     1.4650 S.3   1 SAM   0.9775 
 16 CE     -63.0090   -12.2500     2.8860 C.3   1 SAM  -0.2325 
 17 HE1    -62.8074   -11.2394     2.5307 H     1 SAM   0.0800 
 18 HE2    -62.1623   -12.6040     3.4741 H     1 SAM   0.0800 
 19 HE3    -63.9054   -12.2451     3.5061 H     1 SAM   0.0800 
 20 C5'    -63.5600   -14.8820     2.3930 C.3   1 SAM  -0.1525 
 21 H5'1   -64.3537   -14.6963     3.1166 H     1 SAM   0.0800 
 22 H5'2   -62.6436   -15.1490     2.9194 H     1 SAM   0.0800 
 23 C4'    -63.9710   -16.0550     1.5220 C.3   1 SAM   0.2000 
 24 H4'    -64.7283   -15.6999     0.8230 H     1 SAM   0.0800 
 25 O4'    -62.8380   -16.5760     0.8460 O.3   1 SAM  -0.5600 
 26 C3'    -64.4950   -17.1830     2.3860 C.3   1 SAM   0.2000 
 27 H3'    -64.0455   -17.2412     3.3773 H     1 SAM   0.0800 
 28 O3'    -65.8690   -17.0340     2.6550 O.3   1 SAM  -0.6800 
 29 H3'    -66.1526   -17.8044     3.1526 H     1 SAM   0.4000 
 30 C2'    -64.1970   -18.3820     1.5200 C.3   1 SAM   0.2000 
 31 H2'    -64.1931   -19.3396     2.0406 H     1 SAM   0.0800 
 32 O2'    -65.1610   -18.4250     0.4980 O.3   1 SAM  -0.6800 
 33 H2'    -66.0125   -18.5912     0.9090 H     1 SAM   0.4000 
 34 C1'    -62.8660   -17.9940     0.9120 C.3   1 SAM   0.5691 
 35 H1'    -62.7470   -18.4695    -0.0616 H     1 SAM   0.0800 
 36 OXT    -63.3420   -13.1410    -2.9260 O.co2 1 SAM  -0.9000 
 37 N1     -60.2240   -21.9640     3.0150 N.2   1 SAM  -0.6610 
 38 C2     -61.2710   -22.0120     2.1160 C.2   1 SAM   0.6010 
 39 H2     -61.6327   -22.9688     1.7693 H     1 SAM   0.0600 
 40 N3     -61.8610   -20.8530     1.6550 N.2   1 SAM  -0.6610 
 41 C4     -61.3850   -19.6650     2.1040 C.2   1 SAM   0.5000 
 42 C5     -60.3360   -19.5860     3.0190 C.2   1 SAM   0.4500 
 43 C6     -59.7470   -20.7600     3.4830 C.2   1 SAM   0.6110 
 44 N6     -58.7370   -20.7600     4.3500 N.2   1 SAM  -0.2000 
 45 H62    -58.3385   -21.6344     4.6611 H     1 SAM   0.4000 
 46 H61    -58.3691   -19.8856     4.6968 H     1 SAM   0.4000 
 47 N7     -60.1020   -18.2730     3.2790 N.2   1 SAM  -0.6960 
 48 C8     -60.9760   -17.5420     2.5570 C.3   1 SAM   0.4551 
 49 H81    -60.4298   -16.8792     1.8858 H     1 SAM   0.0800 
 50 H82    -61.5965   -16.9483     3.2283 H     1 SAM   0.0800 
 51 N9     -61.7750   -18.3890     1.8190 N.pl3 1 SAM  -0.7882 
@<TRIPOS>BOND
  1   1   2  1   
  2   1   3  1   
  3   1   4  1   
  4   1   5  1   
  5   5   6  1   
  6   5   7  1   
  7   5   9  1   
  8   7   8  ar  
  9   7  36  ar  
 10   9  10  1   
 11   9  11  1   
 12   9  12  1   
 13  12  13  1   
 14  12  14  1   
 15  12  15  1   
 16  15  16  1   
 17  15  20  1   
 18  16  17  1   
 19  16  18  1   
 20  16  19  1   
 21  20  21  1   
 22  20  22  1   
 23  20  23  1   
 24  23  24  1   
 25  23  25  1   
 26  23  26  1   
 27  25  34  1   
 28  26  27  1   
 29  26  28  1   
 30  26  30  1   
 31  28  29  1   
 32  30  31  1   
 33  30  32  1   
 34  30  34  1   
 35  32  33  1   
 36  34  35  1   
 37  34  51  1   
 38  37  38  2   
 39  37  43  1   
 40  38  39  1   
 41  38  40  1   
 42  40  41  2   
 43  41  42  1   
 44  41  51  1   
 45  42  43  1   
 46  42  47  2   
 47  43  44  2   
 48  44  45  1   
 49  44  46  1   
 50  47  48  1   
 51  48  49  1   
 52  48  50  1   
 53  48  51  1   
@<TRIPOS>SUBSTRUCTURE
  1 SAM  25 GROUP 4 A **** 0

# MOE 2022.02 (io_trps.svl 2020.11)
