# created with PyMOL 2.4.0
@<TRIPOS>MOLECULE
temp
50 52 1                 
SMALL
USER_CHARGES
@<TRIPOS>ATOM
1	   N	-61.088	-15.655	-1.561	N.4	1	SAM1	0.000	
2	  CA	-62.042	-14.546	-1.438	C.3	1	SAM1	0.000	
3	   C	-62.546	-14.087	-2.806	C.2	1	SAM1	0.000	
4	   O	-62.174	-14.669	-3.831	O.co2	1	SAM1	0.000	
5	  CB	-61.443	-13.398	-0.616	C.3	1	SAM1	0.000	
6	  CG	-61.559	-13.601	0.892	C.3	1	SAM1	0.000	
7	  SD	-63.262	-13.352	1.465	S.3	1	SAM1	0.000	
8	  CE	-63.009	-12.250	2.886	C.3	1	SAM1	0.000	
9	 C5'	-63.560	-14.882	2.393	C.3	1	SAM1	0.000	
10	 C4'	-63.971	-16.055	1.522	C.3	1	SAM1	0.000	
11	 O4'	-62.838	-16.576	0.846	O.3	1	SAM1	0.000	
12	 C3'	-64.495	-17.183	2.386	C.3	1	SAM1	0.000	
13	 O3'	-65.869	-17.034	2.655	O.3	1	SAM1	0.000	
14	 C2'	-64.197	-18.382	1.520	C.3	1	SAM1	0.000	
15	 O2'	-65.161	-18.425	0.498	O.3	1	SAM1	0.000	
16	 C1'	-62.866	-17.994	0.912	C.3	1	SAM1	0.000	
17	 OXT	-63.342	-13.141	-2.926	O.co2	1	SAM1	0.000	
18	  N1	-60.224	-21.964	3.015	N.2	1	SAM1	0.000	
19	  C2	-61.271	-22.012	2.116	C.2	1	SAM1	0.000	
20	  N3	-61.861	-20.853	1.655	N.2	1	SAM1	0.000	
21	  C4	-61.385	-19.665	2.104	C.2	1	SAM1	0.000	
22	  C5	-60.336	-19.586	3.019	C.2	1	SAM1	0.000	
23	  C6	-59.747	-20.760	3.483	C.2	1	SAM1	0.000	
24	  N6	-58.737	-20.760	4.350	N.pl3	1	SAM1	0.000	
25	  N7	-60.102	-18.273	3.279	N.2	1	SAM1	0.000	
26	  C8	-60.976	-17.542	2.557	C.2	1	SAM1	0.000	
27	  N9	-61.775	-18.389	1.819	N.2	1	SAM1	0.000	
28	  HA	-62.915	-14.906	-0.894	 H	1	SAM1	0.000	
29	 HB1	-61.963	-12.477	-0.881	 H	1	SAM1	0.000	
30	 HB2	-60.387	-13.306	-0.871	 H	1	SAM1	0.000	
31	 HG1	-60.907	-12.888	1.397	 H	1	SAM1	0.000	
32	 HG2	-61.247	-14.616	1.138	 H	1	SAM1	0.000	
33	 HE1	-62.807	-11.239	2.531	 H	1	SAM1	0.000	
34	 HE2	-62.162	-12.604	3.474	 H	1	SAM1	0.000	
35	 HE3	-63.905	-12.245	3.506	 H	1	SAM1	0.000	
36	  H1	-60.270	-15.341	-2.063	 H	1	SAM1	0.000	
37	  H2	-61.520	-16.417	-2.064	 H	1	SAM1	0.000	
38	  H2	-61.633	-22.969	1.769	 H	1	SAM1	0.000	
39	  H3	-60.818	-15.970	-0.640	 H	1	SAM1	0.000	
40	  H8	-61.040	-16.464	2.557	 H	1	SAM1	0.000	
41	 H1'	-62.747	-18.469	-0.062	 H	1	SAM1	0.000	
42	 H2'	-64.193	-19.340	2.041	 H	1	SAM1	0.000	
43	 H2'	-66.012	-18.591	0.909	 H	1	SAM1	0.000	
44	 H3'	-64.046	-17.241	3.377	 H	1	SAM1	0.000	
45	 H3'	-66.153	-17.804	3.153	 H	1	SAM1	0.000	
46	 H4'	-64.728	-15.700	0.823	 H	1	SAM1	0.000	
47	 H61	-58.369	-19.886	4.697	 H	1	SAM1	0.000	
48	 H62	-58.339	-21.634	4.661	 H	1	SAM1	0.000	
49	H5'1	-64.354	-14.696	3.117	 H	1	SAM1	0.000	
50	H5'2	-62.644	-15.149	2.919	 H	1	SAM1	0.000	
@<TRIPOS>BOND
1 1 2 1
2 1 36 1
3 1 37 1
4 1 39 1
5 2 3 1
6 2 5 1
7 2 28 1
8 3 4 ar
9 3 17 ar
10 5 6 1
11 5 29 1
12 5 30 1
13 6 7 1
14 6 31 1
15 6 32 1
16 7 8 1
17 7 9 1
18 8 33 1
19 8 34 1
20 8 35 1
21 9 10 1
22 9 49 1
23 9 50 1
24 10 11 1
25 10 12 1
26 10 46 1
27 11 16 1
28 12 13 1
29 12 14 1
30 12 44 1
31 13 45 1
32 14 15 1
33 14 16 1
34 14 42 1
35 15 43 1
36 16 27 1
37 16 41 1
38 18 19 ar
39 18 23 ar
40 19 20 ar
41 19 38 1
42 20 21 ar
43 21 22 ar
44 21 27 ar
45 22 23 ar
46 22 25 ar
47 23 24 1
48 24 47 1
49 24 48 1
50 25 26 ar
51 26 27 ar
52 26 40 1
@<TRIPOS>SUBSTRUCTURE
1	SAM1	1	GROUP	1 A	SAM
