@<TRIPOS>MOLECULE
3OOI.A
51 53 1 0 0 
SMALL
USER_CHARGES


@<TRIPOS>ATOM
  1 N        1.3930    -1.5670    -8.9250 N.4   1 SAM  -0.8530 
  2 H1       0.7688    -2.3248    -9.1621 H     1 SAM   0.4500 
  3 H2       2.2991    -1.7352    -9.3384 H     1 SAM   0.4500 
  4 H3       1.0177    -0.6985    -9.2785 H     1 SAM   0.4500 
  5 CA       1.5310    -1.4820    -7.4420 C.3   1 SAM   0.3170 
  6 HA       2.2049    -0.6636    -7.1886 H     1 SAM   0.0800 
  7 C        2.1830    -2.7520    -6.8830 C.2   1 SAM   0.9060 
  8 O        2.7240    -3.6170    -7.6080 O.co2 1 SAM  -0.9000 
  9 CB       0.1830    -1.1370    -6.7890 C.3   1 SAM  -0.1600 
 10 HB1      0.2211    -1.4100    -5.7344 H     1 SAM   0.0800 
 11 HB2     -0.6048    -1.7055    -7.2832 H     1 SAM   0.0800 
 12 CG      -0.1390     0.3710    -6.9050 C.3   1 SAM  -0.1525 
 13 HG1     -1.1707     0.5389    -6.5961 H     1 SAM   0.0800 
 14 HG2     -0.0151     0.6821    -7.9423 H     1 SAM   0.0800 
 15 SD       0.9700     1.3680    -5.8470 S.3   1 SAM   0.9775 
 16 CE      -0.1740     2.4090    -4.9090 C.3   1 SAM  -0.2325 
 17 HE1     -0.6690     1.8086    -4.1457 H     1 SAM   0.0800 
 18 HE2     -0.9212     2.8271    -5.5836 H     1 SAM   0.0800 
 19 HE3      0.3788     3.2186    -4.4325 H     1 SAM   0.0800 
 20 C5'      1.5940     2.6330    -6.9820 C.3   1 SAM  -0.1525 
 21 H5'1     1.9450     3.4773    -6.3886 H     1 SAM   0.0800 
 22 H5'2     0.7692     2.9540    -7.6182 H     1 SAM   0.0800 
 23 C4'      2.7300     2.1810    -7.8760 C.3   1 SAM   0.2000 
 24 H4'      3.4022     1.5970    -7.2474 H     1 SAM   0.0800 
 25 O4'      2.2750     1.3850    -8.9670 O.3   1 SAM  -0.5600 
 26 C3'      3.4130     3.3840    -8.4830 C.3   1 SAM   0.2000 
 27 H3'      2.7636     4.2474    -8.6279 H     1 SAM   0.0800 
 28 O3'      4.4250     3.8750    -7.6270 O.3   1 SAM  -0.6800 
 29 H3'      4.8591     4.6027    -8.0783 H     1 SAM   0.4000 
 30 C2'      3.9250     2.8520    -9.8050 C.3   1 SAM   0.2000 
 31 H2'      4.0722     3.6376   -10.5461 H     1 SAM   0.0800 
 32 O2'      5.1660     2.1800    -9.6170 O.3   1 SAM  -0.6800 
 33 H2'      5.8035     2.8284    -9.3090 H     1 SAM   0.4000 
 34 C1'      2.8840     1.8080   -10.1750 C.3   1 SAM   0.5691 
 35 H1'      3.3749     0.9926   -10.7063 H     1 SAM   0.0800 
 36 OXT      2.1900    -2.9310    -5.6680 O.co2 1 SAM  -0.9000 
 37 N1       1.7330     3.6070   -14.9460 N.2   1 SAM  -0.6610 
 38 C2       2.9630     3.2060   -14.4690 C.2   1 SAM   0.6010 
 39 H2       3.8255     3.2450   -15.1178 H     1 SAM   0.0600 
 40 N3       3.1050     2.7550   -13.1710 N.2   1 SAM  -0.6610 
 41 C4       1.9920     2.7070   -12.3780 C.2   1 SAM   0.5000 
 42 C5       0.7460     3.1160   -12.8420 C.2   1 SAM   0.4500 
 43 C6       0.6180     3.5620   -14.1560 C.2   1 SAM   0.6110 
 44 N6      -0.5440     3.9580   -14.6550 N.2   1 SAM  -0.2000 
 45 H62     -0.6007     4.2754   -15.6121 H     1 SAM   0.4000 
 46 H61     -1.3729     3.9424   -14.0782 H     1 SAM   0.4000 
 47 N7      -0.1610     2.9690   -11.8360 N.2   1 SAM  -0.6960 
 48 C8       0.5010     2.4850   -10.7580 C.3   1 SAM   0.4551 
 49 H81      0.0888     1.5145   -10.4817 H     1 SAM   0.0800 
 50 H82      0.3934     3.1767    -9.9225 H     1 SAM   0.0800 
 51 N9       1.8340     2.3470   -11.0740 N.pl3 1 SAM  -0.7882 
@<TRIPOS>BOND
  1   1   2  1   
  2   1   3  1   
  3   1   4  1   
  4   1   5  1   
  5   5   6  1   
  6   5   7  1   
  7   5   9  1   
  8   7   8  ar  
  9   7  36  ar  
 10   9  10  1   
 11   9  11  1   
 12   9  12  1   
 13  12  13  1   
 14  12  14  1   
 15  12  15  1   
 16  15  16  1   
 17  15  20  1   
 18  16  17  1   
 19  16  18  1   
 20  16  19  1   
 21  20  21  1   
 22  20  22  1   
 23  20  23  1   
 24  23  24  1   
 25  23  25  1   
 26  23  26  1   
 27  25  34  1   
 28  26  27  1   
 29  26  28  1   
 30  26  30  1   
 31  28  29  1   
 32  30  31  1   
 33  30  32  1   
 34  30  34  1   
 35  32  33  1   
 36  34  35  1   
 37  34  51  1   
 38  37  38  2   
 39  37  43  1   
 40  38  39  1   
 41  38  40  1   
 42  40  41  2   
 43  41  42  1   
 44  41  51  1   
 45  42  43  1   
 46  42  47  2   
 47  43  44  2   
 48  44  45  1   
 49  44  46  1   
 50  47  48  1   
 51  48  49  1   
 52  48  50  1   
 53  48  51  1   
@<TRIPOS>SUBSTRUCTURE
  1 SAM  25 GROUP 4 A **** 0

# MOE 2022.02 (io_trps.svl 2020.11)
