# created with PyMOL 2.4.0
@<TRIPOS>MOLECULE
temp
50 52 1                 
SMALL
USER_CHARGES
@<TRIPOS>ATOM
1	   N	1.393	-1.567	-8.925	N.4	1	SAM1	0.000	
2	  CA	1.531	-1.482	-7.442	C.3	1	SAM1	0.000	
3	   C	2.183	-2.752	-6.883	C.2	1	SAM1	0.000	
4	   O	2.724	-3.617	-7.608	O.co2	1	SAM1	0.000	
5	  CB	0.183	-1.137	-6.789	C.3	1	SAM1	0.000	
6	  CG	-0.139	0.371	-6.905	C.3	1	SAM1	0.000	
7	  SD	0.970	1.368	-5.847	S.3	1	SAM1	0.000	
8	  CE	-0.174	2.409	-4.909	C.3	1	SAM1	0.000	
9	 C5'	1.594	2.633	-6.982	C.3	1	SAM1	0.000	
10	 C4'	2.730	2.181	-7.876	C.3	1	SAM1	0.000	
11	 O4'	2.275	1.385	-8.967	O.3	1	SAM1	0.000	
12	 C3'	3.413	3.384	-8.483	C.3	1	SAM1	0.000	
13	 O3'	4.425	3.875	-7.627	O.3	1	SAM1	0.000	
14	 C2'	3.925	2.852	-9.805	C.3	1	SAM1	0.000	
15	 O2'	5.166	2.180	-9.617	O.3	1	SAM1	0.000	
16	 C1'	2.884	1.808	-10.175	C.3	1	SAM1	0.000	
17	 OXT	2.190	-2.931	-5.668	O.co2	1	SAM1	0.000	
18	  N1	1.733	3.607	-14.946	N.2	1	SAM1	0.000	
19	  C2	2.963	3.206	-14.469	C.2	1	SAM1	0.000	
20	  N3	3.105	2.755	-13.171	N.2	1	SAM1	0.000	
21	  C4	1.992	2.707	-12.378	C.2	1	SAM1	0.000	
22	  C5	0.746	3.116	-12.842	C.2	1	SAM1	0.000	
23	  C6	0.618	3.562	-14.156	C.2	1	SAM1	0.000	
24	  N6	-0.544	3.958	-14.655	N.pl3	1	SAM1	0.000	
25	  N7	-0.161	2.969	-11.836	N.2	1	SAM1	0.000	
26	  C8	0.501	2.485	-10.758	C.2	1	SAM1	0.000	
27	  N9	1.834	2.347	-11.074	N.2	1	SAM1	0.000	
28	  HA	2.205	-0.664	-7.189	 H	1	SAM1	0.000	
29	 HB1	0.221	-1.410	-5.734	 H	1	SAM1	0.000	
30	 HB2	-0.605	-1.706	-7.283	 H	1	SAM1	0.000	
31	 HG1	-1.171	0.539	-6.596	 H	1	SAM1	0.000	
32	 HG2	-0.015	0.682	-7.942	 H	1	SAM1	0.000	
33	 HE1	-0.669	1.809	-4.146	 H	1	SAM1	0.000	
34	 HE2	-0.921	2.827	-5.584	 H	1	SAM1	0.000	
35	 HE3	0.379	3.219	-4.432	 H	1	SAM1	0.000	
36	  H1	0.769	-2.325	-9.162	 H	1	SAM1	0.000	
37	  H2	2.299	-1.735	-9.338	 H	1	SAM1	0.000	
38	  H2	3.826	3.245	-15.118	 H	1	SAM1	0.000	
39	  H3	1.018	-0.698	-9.278	 H	1	SAM1	0.000	
40	  H8	0.055	2.246	-9.804	 H	1	SAM1	0.000	
41	 H1'	3.375	0.993	-10.706	 H	1	SAM1	0.000	
42	 H2'	4.072	3.638	-10.546	 H	1	SAM1	0.000	
43	 H2'	5.804	2.828	-9.309	 H	1	SAM1	0.000	
44	 H3'	2.764	4.247	-8.628	 H	1	SAM1	0.000	
45	 H3'	4.859	4.603	-8.078	 H	1	SAM1	0.000	
46	 H4'	3.402	1.597	-7.247	 H	1	SAM1	0.000	
47	 H61	-1.373	3.942	-14.078	 H	1	SAM1	0.000	
48	 H62	-0.601	4.275	-15.612	 H	1	SAM1	0.000	
49	H5'1	1.945	3.477	-6.389	 H	1	SAM1	0.000	
50	H5'2	0.769	2.954	-7.618	 H	1	SAM1	0.000	
@<TRIPOS>BOND
1 1 2 1
2 1 36 1
3 1 37 1
4 1 39 1
5 2 3 1
6 2 5 1
7 2 28 1
8 3 4 ar
9 3 17 ar
10 5 6 1
11 5 29 1
12 5 30 1
13 6 7 1
14 6 31 1
15 6 32 1
16 7 8 1
17 7 9 1
18 8 33 1
19 8 34 1
20 8 35 1
21 9 10 1
22 9 49 1
23 9 50 1
24 10 11 1
25 10 12 1
26 10 46 1
27 11 16 1
28 12 13 1
29 12 14 1
30 12 44 1
31 13 45 1
32 14 15 1
33 14 16 1
34 14 42 1
35 15 43 1
36 16 27 1
37 16 41 1
38 18 19 ar
39 18 23 ar
40 19 20 ar
41 19 38 1
42 20 21 ar
43 21 22 ar
44 21 27 ar
45 22 23 ar
46 22 25 ar
47 23 24 1
48 24 47 1
49 24 48 1
50 25 26 ar
51 26 27 ar
52 26 40 1
@<TRIPOS>SUBSTRUCTURE
1	SAM1	1	GROUP	1 A	SAM
