# created with PyMOL 2.5.0
@<TRIPOS>MOLECULE
3OOI
27 29 1                 
SMALL
USER_CHARGES
@<TRIPOS>ATOM
1	   N	1.393	-1.567	-8.925	N.3	1	SAM237	0.000	
2	  CA	1.531	-1.482	-7.442	C.3	1	SAM237	0.000	
3	   C	2.183	-2.752	-6.883	C.2	1	SAM237	0.000	
4	   O	2.724	-3.617	-7.608	O.co2	1	SAM237	0.000	
5	  CB	0.183	-1.137	-6.789	C.3	1	SAM237	0.000	
6	  CG	-0.139	0.371	-6.905	C.3	1	SAM237	0.000	
7	  SD	0.970	1.368	-5.847	S.3	1	SAM237	0.000	
8	  CE	-0.174	2.409	-4.909	C.3	1	SAM237	0.000	
9	 C5'	1.594	2.633	-6.982	C.3	1	SAM237	0.000	
10	 C4'	2.730	2.181	-7.876	C.3	1	SAM237	0.000	
11	 O4'	2.275	1.385	-8.967	O.3	1	SAM237	0.000	
12	 C3'	3.413	3.384	-8.483	C.3	1	SAM237	0.000	
13	 O3'	4.425	3.875	-7.627	O.3	1	SAM237	0.000	
14	 C2'	3.925	2.852	-9.805	C.3	1	SAM237	0.000	
15	 O2'	5.166	2.180	-9.617	O.3	1	SAM237	0.000	
16	 C1'	2.884	1.808	-10.175	C.3	1	SAM237	0.000	
17	 OXT	2.190	-2.931	-5.668	O.co2	1	SAM237	0.000	
18	  N1	1.733	3.607	-14.946	N.2	1	SAM237	0.000	
19	  C2	2.963	3.206	-14.469	C.2	1	SAM237	0.000	
20	  N3	3.105	2.755	-13.171	N.2	1	SAM237	0.000	
21	  C4	1.992	2.707	-12.378	C.2	1	SAM237	0.000	
22	  C5	0.746	3.116	-12.842	C.2	1	SAM237	0.000	
23	  C6	0.618	3.562	-14.156	C.2	1	SAM237	0.000	
24	  N6	-0.544	3.958	-14.655	N.pl3	1	SAM237	0.000	
25	  N7	-0.161	2.969	-11.836	N.2	1	SAM237	0.000	
26	  C8	0.501	2.485	-10.758	C.2	1	SAM237	0.000	
27	  N9	1.834	2.347	-11.074	N.2	1	SAM237	0.000	
@<TRIPOS>BOND
1 1 2 1
2 2 3 1
3 2 5 1
4 3 4 ar
5 3 17 ar
6 5 6 1
7 6 7 1
8 7 8 1
9 7 9 1
10 9 10 1
11 10 11 1
12 10 12 1
13 11 16 1
14 12 13 1
15 12 14 1
16 14 15 1
17 14 16 1
18 16 27 1
19 18 19 ar
20 18 23 ar
21 19 20 ar
22 20 21 ar
23 21 22 ar
24 21 27 ar
25 22 23 ar
26 22 25 ar
27 23 24 1
28 25 26 ar
29 26 27 ar
@<TRIPOS>SUBSTRUCTURE
1	SAM237	1	GROUP	1 A	SAM
