# created with PyMOL 2.5.0
@<TRIPOS>MOLECULE
6WVN
10 11 1                 
SMALL
USER_CHARGES
@<TRIPOS>ATOM
1	  N1	84.007	49.500	20.204	N.2	1	ADE7115	0.000	
2	  C2	84.844	48.531	19.807	C.2	1	ADE7115	0.000	
3	  N3	84.613	47.501	18.997	N.2	1	ADE7115	0.000	
4	  C4	83.338	47.507	18.559	C.2	1	ADE7115	0.000	
5	  C5	82.361	48.437	18.879	C.2	1	ADE7115	0.000	
6	  C6	82.731	49.483	19.748	C.2	1	ADE7115	0.000	
7	  N6	81.899	50.444	20.141	N.pl3	1	ADE7115	0.000	
8	  N7	81.167	48.121	18.241	N.pl3	1	ADE7115	0.000	
9	  C8	81.455	47.031	17.568	C.2	1	ADE7115	0.000	
10	  N9	82.741	46.612	17.718	N.2	1	ADE7115	0.000	
@<TRIPOS>BOND
1 1 2 ar
2 1 6 ar
3 2 3 ar
4 3 4 ar
5 4 5 ar
6 4 10 ar
7 5 6 ar
8 5 8 ar
9 6 7 1
10 8 9 ar
11 9 10 ar
@<TRIPOS>SUBSTRUCTURE
1	ADE7115	1	GROUP	1 A	ADE
