@<TRIPOS>MOLECULE
6WVN.A
15 16 1 0 0 
SMALL
USER_CHARGES


@<TRIPOS>ATOM
  1 N1     104.0820    22.1460    43.5450 N.ar  1 ADE  -0.7525 
  2 C2     104.5750    20.9530    43.1860 C.ar  1 ADE   0.5209 
  3 H2     104.0662    20.0966    43.6032 H     1 ADE   0.0896 
  4 N3     105.6030    20.6740    42.3880 N.ar  1 ADE  -0.7564 
  5 C4     106.1700    21.8020    41.9170 C.ar  1 ADE   0.6000 
  6 C5     105.7740    23.1010    42.1970 C.ar  1 ADE   0.0603 
  7 C6     104.6710    23.2660    43.0580 C.ar  1 ADE   0.6695 
  8 N6     104.1800    24.4520    43.4090 N.pl3 1 ADE  -0.9433 
  9 H61    104.6015    25.2983    43.0536 H     1 ADE   0.4285 
 10 H62    103.3859    24.5059    44.0308 H     1 ADE   0.4285 
 11 N7     106.5930    24.0080    41.5340 N.2   1 ADE  -0.5871 
 12 C8     107.4410    23.2420    40.8870 C.2   1 ADE   0.2174 
 13 H8     108.2282    23.6346    40.2604 H     1 ADE   0.1628 
 14 N9     107.2400    21.9110    41.0760 N.pl3 1 ADE  -0.5337 
 15 H9     107.7751    21.1542    40.6747 H     1 ADE   0.3954 
@<TRIPOS>BOND
  1   1   2  ar  
  2   1   7  ar  
  3   2   3  1   
  4   2   4  ar  
  5   4   5  ar  
  6   5   6  ar  
  7   5  14  1   
  8   6   7  ar  
  9   6  11  1   
 10   7   8  1   
 11   8   9  1   
 12   8  10  1   
 13  11  12  2   
 14  12  13  1   
 15  12  14  1   
 16  14  15  1   
@<TRIPOS>SUBSTRUCTURE
  1 ADE   6 GROUP 4 A **** 0

# MOE 2022.02 (io_trps.svl 2020.11)
