@<TRIPOS>MOLECULE
6WVN.A
15 16 1 0 0 
SMALL
USER_CHARGES


@<TRIPOS>ATOM
  1 N1      84.0070    49.5000    20.2040 N.ar  1 ADE  -0.7525 
  2 C2      84.8440    48.5310    19.8070 C.ar  1 ADE   0.5209 
  3 H2      85.8478    48.5955    20.2003 H     1 ADE   0.0896 
  4 N3      84.6130    47.5010    18.9970 N.ar  1 ADE  -0.7564 
  5 C4      83.3380    47.5070    18.5590 C.ar  1 ADE   0.6000 
  6 C5      82.3610    48.4370    18.8790 C.ar  1 ADE   0.0603 
  7 C6      82.7310    49.4830    19.7480 C.ar  1 ADE   0.6695 
  8 N6      81.8990    50.4440    20.1410 N.pl3 1 ADE  -0.9433 
  9 H61     80.9433    50.4494    19.8143 H     1 ADE   0.4285 
 10 H62     82.2231    51.1681    20.7661 H     1 ADE   0.4285 
 11 N7      81.1670    48.1210    18.2410 N.2   1 ADE  -0.5871 
 12 C8      81.4550    47.0310    17.5680 C.2   1 ADE   0.2174 
 13 H8      80.7357    46.5133    16.9507 H     1 ADE   0.1628 
 14 N9      82.7410    46.6120    17.7180 N.pl3 1 ADE  -0.5337 
 15 H9      83.1682    45.8016    17.2926 H     1 ADE   0.3954 
@<TRIPOS>BOND
  1   1   2  ar  
  2   1   7  ar  
  3   2   3  1   
  4   2   4  ar  
  5   4   5  ar  
  6   5   6  ar  
  7   5  14  1   
  8   6   7  ar  
  9   6  11  1   
 10   7   8  1   
 11   8   9  1   
 12   8  10  1   
 13  11  12  2   
 14  12  13  1   
 15  12  14  1   
 16  14  15  1   
@<TRIPOS>SUBSTRUCTURE
  1 ADE   6 GROUP 4 A **** 0

# MOE 2022.02 (io_trps.svl 2020.11)
