# created with PyMOL 2.5.0
@<TRIPOS>MOLECULE
6WVN
10 11 1                 
SMALL
USER_CHARGES
@<TRIPOS>ATOM
1	  N1	104.082	22.146	43.545	N.2	1	ADE7116	0.000	
2	  C2	104.575	20.953	43.186	C.2	1	ADE7116	0.000	
3	  N3	105.603	20.674	42.388	N.2	1	ADE7116	0.000	
4	  C4	106.170	21.802	41.917	C.2	1	ADE7116	0.000	
5	  C5	105.774	23.101	42.197	C.2	1	ADE7116	0.000	
6	  C6	104.671	23.266	43.058	C.2	1	ADE7116	0.000	
7	  N6	104.180	24.452	43.409	N.pl3	1	ADE7116	0.000	
8	  N7	106.593	24.008	41.534	N.pl3	1	ADE7116	0.000	
9	  C8	107.441	23.242	40.887	C.2	1	ADE7116	0.000	
10	  N9	107.240	21.911	41.076	N.2	1	ADE7116	0.000	
@<TRIPOS>BOND
1 1 2 ar
2 1 6 ar
3 2 3 ar
4 3 4 ar
5 4 5 ar
6 4 10 ar
7 5 6 ar
8 5 8 ar
9 6 7 1
10 8 9 ar
11 9 10 ar
@<TRIPOS>SUBSTRUCTURE
1	ADE7116	1	GROUP	1 A	ADE
