# created with PyMOL 2.5.0
@<TRIPOS>MOLECULE
6WVN
51 56 1                 
SMALL
USER_CHARGES
@<TRIPOS>ATOM
1	  P1	86.550	24.412	38.819	P.3	1	GTA7113	0.000	
2	  P2	84.823	26.593	37.869	P.3	1	GTA7113	0.000	
3	  P3	82.694	25.737	36.109	P.3	1	GTA7113	0.000	
4	 C1A	85.008	26.456	43.455	C.3	1	GTA7113	0.000	
5	 C1B	82.954	21.786	32.553	C.3	1	GTA7113	0.000	
6	  N1	84.137	31.446	43.439	N.2	1	GTA7113	0.000	
7	 N1C	80.926	17.376	34.190	N.2	1	GTA7113	0.000	
8	  C2	83.702	30.492	44.322	C.2	1	GTA7113	0.000	
9	 C2A	83.640	25.827	43.250	C.3	1	GTA7113	0.000	
10	 C2B	81.938	22.468	31.638	C.3	1	GTA7113	0.000	
11	 C2C	81.465	17.749	33.020	C.2	1	GTA7113	0.000	
12	  N2	82.977	30.917	45.364	N.pl3	1	GTA7113	0.000	
13	 O2A	83.286	25.118	44.421	O.3	1	GTA7113	0.000	
14	 O2B	82.404	22.530	30.308	O.3	1	GTA7113	0.000	
15	 C3A	83.914	24.901	42.083	C.3	1	GTA7113	0.000	
16	 C3B	81.850	23.852	32.281	C.3	1	GTA7113	0.000	
17	  N3	83.965	29.205	44.176	N.2	1	GTA7113	0.000	
18	 N3C	81.980	18.926	32.669	N.2	1	GTA7113	0.000	
19	 O3A	82.959	23.864	41.902	O.3	1	GTA7113	0.000	
20	 O3B	81.335	24.839	31.396	O.3	1	GTA7113	0.000	
21	  C4	84.697	28.942	43.077	C.2	1	GTA7113	0.000	
22	 C4A	85.290	24.349	42.476	C.3	1	GTA7113	0.000	
23	 C4B	83.323	24.099	32.624	C.3	1	GTA7113	0.000	
24	 C4C	81.905	19.801	33.686	C.2	1	GTA7113	0.000	
25	 O4A	85.964	25.493	43.065	O.3	1	GTA7113	0.000	
26	 O4B	83.810	22.798	33.042	O.3	1	GTA7113	0.000	
27	  C5	85.159	29.855	42.164	C.2	1	GTA7113	0.000	
28	 C5A	86.129	23.792	41.350	C.3	1	GTA7113	0.000	
29	 C5B	83.593	25.104	33.714	C.3	1	GTA7113	0.000	
30	 C5C	81.382	19.570	34.940	C.2	1	GTA7113	0.000	
31	  C6	84.888	31.214	42.302	C.2	1	GTA7113	0.000	
32	 C6C	80.868	18.283	35.196	C.2	1	GTA7113	0.000	
33	 N6C	80.330	17.918	36.355	N.pl3	1	GTA7113	0.000	
34	  O6	85.234	32.138	41.574	O.2	1	GTA7113	0.000	
35	  C7	86.515	29.669	40.010	C.3	1	GTA7113	0.000	
36	  N7	85.868	29.130	41.205	N.2	1	GTA7113	0.000	
37	 N7C	81.481	20.716	35.720	N.2	1	GTA7113	0.000	
38	  C8	85.862	27.848	41.567	C.2	1	GTA7113	0.000	
39	 C8C	82.051	21.605	34.937	C.2	1	GTA7113	0.000	
40	  N9	85.136	27.690	42.654	N.2	1	GTA7113	0.000	
41	 N9C	82.336	21.101	33.687	N.2	1	GTA7113	0.000	
42	 O11	87.985	24.115	38.552	O.co2	1	GTA7113	0.000	
43	 O12	85.530	23.389	38.460	O.co2	1	GTA7113	0.000	
44	 O13	86.191	25.799	38.098	O.3	1	GTA7113	0.000	
45	 O15	86.371	24.831	40.362	O.3	1	GTA7113	0.000	
46	 O21	83.917	26.409	39.043	O.co2	1	GTA7113	0.000	
47	 O22	85.154	27.969	37.399	O.co2	1	GTA7113	0.000	
48	 O23	84.193	25.752	36.664	O.3	1	GTA7113	0.000	
49	 O31	81.796	25.120	37.132	O.co2	1	GTA7113	0.000	
50	 O32	82.373	27.106	35.602	O.co2	1	GTA7113	0.000	
51	 O33	82.840	24.720	34.885	O.3	1	GTA7113	0.000	
@<TRIPOS>BOND
1 1 42 1
2 1 43 2
3 1 44 1
4 1 45 1
5 2 44 1
6 2 46 1
7 2 47 2
8 2 48 1
9 3 48 1
10 3 49 1
11 3 50 2
12 3 51 1
13 4 9 1
14 4 25 1
15 4 40 1
16 5 10 1
17 5 26 1
18 5 41 1
19 6 8 ar
20 6 31 ar
21 7 11 ar
22 7 32 ar
23 8 12 1
24 8 17 ar
25 9 13 1
26 9 15 1
27 10 14 1
28 10 16 1
29 11 18 ar
30 15 19 1
31 15 22 1
32 16 20 1
33 16 23 1
34 17 21 ar
35 18 24 ar
36 21 27 ar
37 21 40 ar
38 22 25 1
39 22 28 1
40 23 26 1
41 23 29 1
42 24 30 ar
43 24 41 ar
44 27 31 ar
45 27 36 ar
46 28 45 1
47 29 51 1
48 30 32 ar
49 30 37 ar
50 31 34 2
51 32 33 1
52 35 36 1
53 36 38 ar
54 37 39 ar
55 38 40 ar
56 39 41 ar
@<TRIPOS>SUBSTRUCTURE
1	GTA7113	1	GROUP	1 A	GTA
