@<TRIPOS>MOLECULE
6WVN.A
78 83 1 0 0 
SMALL
USER_CHARGES


@<TRIPOS>ATOM
  1 P1      86.5500    24.4120    38.8190 P.3   1 GTA   1.4424 
  2 P2      84.8230    26.5930    37.8690 P.3   1 GTA   1.4424 
  3 P3      82.6940    25.7370    36.1090 P.3   1 GTA   1.4424 
  4 C1A     85.0080    26.4560    43.4550 C.3   1 GTA   0.5461 
  5 H1A     85.1571    26.7404    44.4966 H     1 GTA   0.0800 
  6 C1B     82.9540    21.7860    32.5530 C.3   1 GTA   0.5691 
  7 H1B     83.4825    21.0246    31.9793 H     1 GTA   0.0800 
  8 N1      84.1370    31.4460    43.4390 N.2   1 GTA  -0.6610 
  9 N1C     80.9260    17.3760    34.1900 N.2   1 GTA  -0.6610 
 10 C2      83.7020    30.4920    44.3220 C.2   1 GTA   0.7110 
 11 C2A     83.6400    25.8270    43.2500 C.3   1 GTA   0.2000 
 12 H2A     82.8187    26.5179    43.0595 H     1 GTA   0.0800 
 13 C2B     81.9380    22.4680    31.6380 C.3   1 GTA   0.2000 
 14 H2B     80.9799    21.9541    31.5597 H     1 GTA   0.0800 
 15 C2C     81.4650    17.7490    33.0200 C.2   1 GTA   0.6010 
 16 H2C     81.4841    16.9875    32.2544 H     1 GTA   0.0600 
 17 N2      82.9770    30.9170    45.3640 N.pl3 1 GTA  -0.8500 
 18 H21     82.7745    31.9007    45.4706 H     1 GTA   0.4000 
 19 H22     82.6325    30.2539    46.0435 H     1 GTA   0.4000 
 20 O2A     83.2860    25.1180    44.4210 O.3   1 GTA  -0.6800 
 21 H2A     82.4619    24.6584    44.2441 H     1 GTA   0.4000 
 22 O2B     82.4040    22.5300    30.3080 O.3   1 GTA  -0.6800 
 23 H2B     82.4890    21.6289    29.9879 H     1 GTA   0.4000 
 24 C3A     83.9140    24.9010    42.0830 C.3   1 GTA   0.2000 
 25 H3A     83.8666    25.4122    41.1215 H     1 GTA   0.0800 
 26 C3B     81.8500    23.8520    32.2810 C.3   1 GTA   0.2000 
 27 H3B     81.1690    23.9041    33.1305 H     1 GTA   0.0800 
 28 N3      83.9650    29.2050    44.1760 N.2   1 GTA  -0.6610 
 29 N3C     81.9800    18.9260    32.6690 N.2   1 GTA  -0.6610 
 30 O3A     82.9590    23.8640    41.9020 O.3   1 GTA  -0.6800 
 31 H3A     83.2496    23.3279    41.1605 H     1 GTA   0.4000 
 32 O3B     81.3350    24.8390    31.3960 O.3   1 GTA  -0.6800 
 33 H3B     81.8934    24.8485    30.6152 H     1 GTA   0.4000 
 34 C4      84.6970    28.9420    43.0770 C.2   1 GTA   0.7790 
 35 C4A     85.2900    24.3490    42.4760 C.3   1 GTA   0.2000 
 36 H4A     85.1551    23.4901    43.1334 H     1 GTA   0.0800 
 37 C4B     83.3230    24.0990    32.6240 C.3   1 GTA   0.2000 
 38 H4B     83.8163    24.5313    31.7535 H     1 GTA   0.0800 
 39 C4C     81.9050    19.8010    33.6860 C.2   1 GTA   0.5000 
 40 O4A     85.9640    25.4930    43.0650 O.3   1 GTA  -0.5600 
 41 O4B     83.8100    22.7980    33.0420 O.3   1 GTA  -0.5600 
 42 C5      85.1590    29.8550    42.1640 C.2   1 GTA   0.4000 
 43 C5A     86.1290    23.7920    41.3500 C.3   1 GTA   0.1200 
 44 H5A1    85.6015    22.9613    40.8811 H     1 GTA   0.0800 
 45 H5A2    87.0812    23.4400    41.7469 H     1 GTA   0.0800 
 46 C5B     83.5930    25.1040    33.7140 C.3   1 GTA   0.1200 
 47 H5B1    83.2823    26.0958    33.3855 H     1 GTA   0.0800 
 48 H5B2    84.6574    25.1158    33.9484 H     1 GTA   0.0800 
 49 C5C     81.3820    19.5700    34.9400 C.2   1 GTA   0.4500 
 50 C6      84.8880    31.2140    42.3020 C.2   1 GTA   0.7810 
 51 C6C     80.8680    18.2830    35.1960 C.2   1 GTA   0.6110 
 52 N6C     80.3300    17.9180    36.3550 N.2   1 GTA  -0.2000 
 53 H6C2    79.9789    16.9787    36.4752 H     1 GTA   0.4000 
 54 H6C1    80.2722    18.5799    37.1157 H     1 GTA   0.4000 
 55 O6      85.2340    32.1380    41.5740 O.2   1 GTA  -0.5700 
 56 C7      86.5150    29.6690    40.0100 C.3   1 GTA   0.1061 
 57 H71     86.9886    28.8583    39.4563 H     1 GTA   0.0800 
 58 H72     87.2701    30.3984    40.3033 H     1 GTA   0.0800 
 59 H73     85.7687    30.1522    39.3794 H     1 GTA   0.0800 
 60 N7      85.8680    29.1300    41.2050 N.2   1 GTA  -0.0751 
 61 N7C     81.4810    20.7160    35.7200 N.2   1 GTA  -0.6960 
 62 C8      85.8620    27.8480    41.5670 C.2   1 GTA   0.6690 
 63 H8      86.3770    27.0548    41.0455 H     1 GTA   0.0600 
 64 C8C     82.0510    21.6050    34.9370 C.3   1 GTA   0.4551 
 65 H8C1    82.9804    21.9349    35.4012 H     1 GTA   0.0800 
 66 H8C2    81.3784    22.4555    34.8260 H     1 GTA   0.0800 
 67 N9      85.1360    27.6900    42.6540 N.2   1 GTA  -0.0751 
 68 N9C     82.3360    21.1010    33.6870 N.pl3 1 GTA  -0.7882 
 69 O11     87.9850    24.1150    38.5520 O.co2 1 GTA  -0.9500 
 70 O12     85.5300    23.3890    38.4600 O.co2 1 GTA  -0.9500 
 71 O13     86.1910    25.7990    38.0980 O.3   1 GTA  -0.5424 
 72 O15     86.3710    24.8310    40.3620 O.3   1 GTA  -0.5512 
 73 O21     83.9170    26.4090    39.0430 O.co2 1 GTA  -0.9500 
 74 O22     85.1540    27.9690    37.3990 O.co2 1 GTA  -0.9500 
 75 O23     84.1930    25.7520    36.6640 O.3   1 GTA  -0.5424 
 76 O31     81.7960    25.1200    37.1320 O.co2 1 GTA  -0.9500 
 77 O32     82.3730    27.1060    35.6020 O.co2 1 GTA  -0.9500 
 78 O33     82.8400    24.7200    34.8850 O.3   1 GTA  -0.5512 
@<TRIPOS>BOND
  1   1  69  ar  
  2   1  70  ar  
  3   1  71  1   
  4   1  72  1   
  5   2  71  1   
  6   2  73  ar  
  7   2  74  ar  
  8   2  75  1   
  9   3  75  1   
 10   3  76  ar  
 11   3  77  ar  
 12   3  78  1   
 13   4   5  1   
 14   4  11  1   
 15   4  40  1   
 16   4  67  1   
 17   6   7  1   
 18   6  13  1   
 19   6  41  1   
 20   6  68  1   
 21   8  10  2   
 22   8  50  1   
 23   9  15  2   
 24   9  51  1   
 25  10  17  1   
 26  10  28  1   
 27  11  12  1   
 28  11  20  1   
 29  11  24  1   
 30  13  14  1   
 31  13  22  1   
 32  13  26  1   
 33  15  16  1   
 34  15  29  1   
 35  17  18  1   
 36  17  19  1   
 37  20  21  1   
 38  22  23  1   
 39  24  25  1   
 40  24  30  1   
 41  24  35  1   
 42  26  27  1   
 43  26  32  1   
 44  26  37  1   
 45  28  34  2   
 46  29  39  2   
 47  30  31  1   
 48  32  33  1   
 49  34  42  1   
 50  34  67  1   
 51  35  36  1   
 52  35  40  1   
 53  35  43  1   
 54  37  38  1   
 55  37  41  1   
 56  37  46  1   
 57  39  49  1   
 58  39  68  1   
 59  42  50  1   
 60  42  60  2   
 61  43  44  1   
 62  43  45  1   
 63  43  72  1   
 64  46  47  1   
 65  46  48  1   
 66  46  78  1   
 67  49  51  1   
 68  49  61  2   
 69  50  55  2   
 70  51  52  2   
 71  52  53  1   
 72  52  54  1   
 73  56  57  1   
 74  56  58  1   
 75  56  59  1   
 76  56  60  1   
 77  60  62  1   
 78  61  64  1   
 79  62  63  1   
 80  62  67  2   
 81  64  65  1   
 82  64  66  1   
 83  64  68  1   
@<TRIPOS>SUBSTRUCTURE
  1 GTA  75 GROUP 4 A **** 0

# MOE 2022.02 (io_trps.svl 2020.11)
