# created with PyMOL 2.5.0
@<TRIPOS>MOLECULE
6WVN
33 35 1                 
SMALL
USER_CHARGES
@<TRIPOS>ATOM
1	 CM7	97.966	36.659	17.942	C.3	1	MGP7114	0.000	
2	  PA	99.364	40.650	19.696	P.3	1	MGP7114	0.000	
3	  PB	98.744	43.433	19.000	P.3	1	MGP7114	0.000	
4	  PC	96.195	42.993	20.433	P.3	1	MGP7114	0.000	
5	 C5'	101.864	40.911	18.937	C.3	1	MGP7114	0.000	
6	 O5'	100.533	40.432	18.620	O.3	1	MGP7114	0.000	
7	 C4'	102.875	39.834	18.629	C.3	1	MGP7114	0.000	
8	 O4'	102.520	38.621	19.345	O.3	1	MGP7114	0.000	
9	 C3'	102.960	39.391	17.163	C.3	1	MGP7114	0.000	
10	 O3'	103.725	40.298	16.379	O.3	1	MGP7114	0.000	
11	 C2'	103.565	38.014	17.326	C.3	1	MGP7114	0.000	
12	 O2'	104.936	38.053	17.660	O.3	1	MGP7114	0.000	
13	 C1'	102.795	37.498	18.533	C.3	1	MGP7114	0.000	
14	  N1	100.708	33.800	15.741	N.2	1	MGP7114	0.000	
15	 O1A	99.764	40.029	20.994	O.co2	1	MGP7114	0.000	
16	 O1B	99.130	43.256	17.568	O.co2	1	MGP7114	0.000	
17	 O1C	97.041	42.507	21.586	O.co2	1	MGP7114	0.000	
18	  C2	102.032	34.052	15.983	C.2	1	MGP7114	0.000	
19	  N2	102.921	33.261	15.376	N.pl3	1	MGP7114	0.000	
20	 O2A	98.058	40.251	19.092	O.co2	1	MGP7114	0.000	
21	 O2B	99.031	44.728	19.687	O.co2	1	MGP7114	0.000	
22	 O2C	95.122	42.006	20.043	O.co2	1	MGP7114	0.000	
23	  N3	102.443	35.022	16.778	N.2	1	MGP7114	0.000	
24	 O3A	99.393	42.245	19.855	O.3	1	MGP7114	0.000	
25	 O3B	97.184	43.102	19.158	O.3	1	MGP7114	0.000	
26	 O3C	95.652	44.384	20.655	O.co2	1	MGP7114	0.000	
27	  C4	101.434	35.732	17.321	C.2	1	MGP7114	0.000	
28	  C5	100.093	35.525	17.102	C.2	1	MGP7114	0.000	
29	  C6	99.645	34.502	16.267	C.2	1	MGP7114	0.000	
30	  O6	98.493	34.200	15.982	O.2	1	MGP7114	0.000	
31	  N7	99.414	36.474	17.860	N.2	1	MGP7114	0.000	
32	  C8	100.316	37.173	18.542	C.2	1	MGP7114	0.000	
33	  N9	101.540	36.815	18.166	N.2	1	MGP7114	0.000	
@<TRIPOS>BOND
1 1 31 1
2 2 6 1
3 2 15 1
4 2 20 2
5 2 24 1
6 3 16 1
7 3 21 2
8 3 24 1
9 3 25 1
10 4 17 1
11 4 22 1
12 4 25 1
13 4 26 2
14 5 6 1
15 5 7 1
16 7 8 1
17 7 9 1
18 8 13 1
19 9 10 1
20 9 11 1
21 11 12 1
22 11 13 1
23 13 33 1
24 14 18 ar
25 14 29 ar
26 18 19 1
27 18 23 ar
28 23 27 ar
29 27 28 ar
30 27 33 ar
31 28 29 ar
32 28 31 ar
33 29 30 2
34 31 32 ar
35 32 33 ar
@<TRIPOS>SUBSTRUCTURE
1	MGP7114	1	GROUP	1 A	MGP
