@<TRIPOS>MOLECULE
6WVN.A
47 49 1 0 0 
SMALL
USER_CHARGES


@<TRIPOS>ATOM
  1 CM7     97.9660    36.6590    17.9420 C.3   1 MGP   0.1061 
  2 HM71    97.7429    37.4836    18.6190 H     1 MGP   0.0800 
  3 HM72    97.5037    35.7459    18.3169 H     1 MGP   0.0800 
  4 HM73    97.5720    36.8855    16.9513 H     1 MGP   0.0800 
  5 PA      99.3640    40.6500    19.6960 P.3   1 MGP   1.4424 
  6 PB      98.7440    43.4330    19.0000 P.3   1 MGP   1.4424 
  7 PC      96.1950    42.9930    20.4330 P.3   1 MGP   1.3712 
  8 C5'    101.8640    40.9110    18.9370 C.3   1 MGP   0.1200 
  9 H5'1   101.9157    41.1653    19.9957 H     1 MGP   0.0800 
 10 H5'2   102.0831    41.7960    18.3397 H     1 MGP   0.0800 
 11 O5'    100.5330    40.4320    18.6200 O.3   1 MGP  -0.5512 
 12 C4'    102.8750    39.8340    18.6290 C.3   1 MGP   0.2000 
 13 H4'    103.8242    40.2872    18.9149 H     1 MGP   0.0800 
 14 O4'    102.5200    38.6210    19.3450 O.3   1 MGP  -0.5600 
 15 C3'    102.9600    39.3910    17.1630 C.3   1 MGP   0.2000 
 16 H3'    102.0174    39.3735    16.6158 H     1 MGP   0.0800 
 17 O3'    103.7250    40.2980    16.3790 O.3   1 MGP  -0.6800 
 18 H3'    103.2613    41.1386    16.3725 H     1 MGP   0.4000 
 19 C2'    103.5650    38.0140    17.3260 C.3   1 MGP   0.2000 
 20 H2'    103.5003    37.4214    16.4135 H     1 MGP   0.0800 
 21 O2'    104.9360    38.0530    17.6600 O.3   1 MGP  -0.6800 
 22 H2'    105.4015    38.4640    16.9279 H     1 MGP   0.4000 
 23 C1'    102.7950    37.4980    18.5330 C.3   1 MGP   0.5461 
 24 H1'    103.3953    36.7514    19.0529 H     1 MGP   0.0800 
 25 N1     100.7080    33.8000    15.7410 N.2   1 MGP  -0.6610 
 26 O1A     99.7640    40.0290    20.9940 O.co2 1 MGP  -0.9500 
 27 O1B     99.1300    43.2560    17.5680 O.co2 1 MGP  -0.9500 
 28 O1C     97.0410    42.5070    21.5860 O.co2 1 MGP  -1.0333 
 29 C2     102.0320    34.0520    15.9830 C.2   1 MGP   0.7110 
 30 N2     102.9210    33.2610    15.3760 N.pl3 1 MGP  -0.8500 
 31 H21    102.6045    32.5172    14.7704 H     1 MGP   0.4000 
 32 H22    103.9096    33.4067    15.5227 H     1 MGP   0.4000 
 33 O2A     98.0580    40.2510    19.0920 O.co2 1 MGP  -0.9500 
 34 O2B     99.0310    44.7280    19.6870 O.co2 1 MGP  -0.9500 
 35 O2C     95.1220    42.0060    20.0430 O.co2 1 MGP  -1.0333 
 36 N3     102.4430    35.0220    16.7780 N.2   1 MGP  -0.6610 
 37 O3A     99.3930    42.2450    19.8550 O.3   1 MGP  -0.5424 
 38 O3B     97.1840    43.1020    19.1580 O.3   1 MGP  -0.5424 
 39 O3C     95.6520    44.3840    20.6550 O.co2 1 MGP  -1.0333 
 40 C4     101.4340    35.7320    17.3210 C.2   1 MGP   0.7790 
 41 C5     100.0930    35.5250    17.1020 C.2   1 MGP   0.4000 
 42 C6      99.6450    34.5020    16.2670 C.2   1 MGP   0.7810 
 43 O6      98.4930    34.2000    15.9820 O.2   1 MGP  -0.5700 
 44 N7      99.4140    36.4740    17.8600 N.2   1 MGP  -0.0751 
 45 C8     100.3160    37.1730    18.5420 C.2   1 MGP   0.6690 
 46 H8     100.0888    37.9192    19.2889 H     1 MGP   0.0600 
 47 N9     101.5400    36.8150    18.1660 N.2   1 MGP  -0.0751 
@<TRIPOS>BOND
  1   1   2  1   
  2   1   3  1   
  3   1   4  1   
  4   1  44  1   
  5   5  11  1   
  6   5  26  ar  
  7   5  33  ar  
  8   5  37  1   
  9   6  27  ar  
 10   6  34  ar  
 11   6  37  1   
 12   6  38  1   
 13   7  28  ar  
 14   7  35  ar  
 15   7  38  1   
 16   7  39  ar  
 17   8   9  1   
 18   8  10  1   
 19   8  11  1   
 20   8  12  1   
 21  12  13  1   
 22  12  14  1   
 23  12  15  1   
 24  14  23  1   
 25  15  16  1   
 26  15  17  1   
 27  15  19  1   
 28  17  18  1   
 29  19  20  1   
 30  19  21  1   
 31  19  23  1   
 32  21  22  1   
 33  23  24  1   
 34  23  47  1   
 35  25  29  2   
 36  25  42  1   
 37  29  30  1   
 38  29  36  1   
 39  30  31  1   
 40  30  32  1   
 41  36  40  2   
 42  40  41  1   
 43  40  47  1   
 44  41  42  1   
 45  41  44  2   
 46  42  43  2   
 47  44  45  1   
 48  45  46  1   
 49  45  47  2   
@<TRIPOS>SUBSTRUCTURE
  1 MGP  11 GROUP 4 A **** 0

# MOE 2022.02 (io_trps.svl 2020.11)
