# created with PyMOL 2.5.0
@<TRIPOS>MOLECULE
6WVN
27 29 1                 
SMALL
USER_CHARGES
@<TRIPOS>ATOM
1	   N	82.386	19.588	24.363	N.3	1	SAM7112	0.000	
2	  CA	81.056	19.079	24.787	C.3	1	SAM7112	0.000	
3	   C	79.966	19.931	24.130	C.2	1	SAM7112	0.000	
4	   O	80.173	20.388	23.001	O.co2	1	SAM7112	0.000	
5	  CB	80.927	19.105	26.316	C.3	1	SAM7112	0.000	
6	  CG	82.003	18.265	27.005	C.3	1	SAM7112	0.000	
7	  SD	81.717	18.058	28.783	S.3	1	SAM7112	0.000	
8	  CE	82.024	19.704	29.394	C.3	1	SAM7112	0.000	
9	 C5'	83.272	17.226	29.209	C.3	1	SAM7112	0.000	
10	 C4'	83.370	15.848	28.585	C.3	1	SAM7112	0.000	
11	 O4'	84.672	15.276	28.846	O.3	1	SAM7112	0.000	
12	 C3'	82.352	14.829	29.111	C.3	1	SAM7112	0.000	
13	 O3'	81.450	14.480	28.068	O.3	1	SAM7112	0.000	
14	 C2'	83.211	13.647	29.591	C.3	1	SAM7112	0.000	
15	 O2'	82.650	12.395	29.269	O.3	1	SAM7112	0.000	
16	 C1'	84.514	13.879	28.838	C.3	1	SAM7112	0.000	
17	 OXT	78.891	20.173	24.672	O.co2	1	SAM7112	0.000	
18	  N1	88.386	10.512	28.255	N.2	1	SAM7112	0.000	
19	  C2	87.402	10.900	27.434	C.2	1	SAM7112	0.000	
20	  N3	86.425	11.778	27.643	N.2	1	SAM7112	0.000	
21	  C4	86.512	12.311	28.873	C.2	1	SAM7112	0.000	
22	  C5	87.465	12.014	29.829	C.2	1	SAM7112	0.000	
23	  C6	88.447	11.061	29.492	C.2	1	SAM7112	0.000	
24	  N6	89.421	10.675	30.316	N.pl3	1	SAM7112	0.000	
25	  N7	87.239	12.753	30.980	N.2	1	SAM7112	0.000	
26	  C8	86.174	13.463	30.706	C.2	1	SAM7112	0.000	
27	  N9	85.683	13.249	29.443	N.2	1	SAM7112	0.000	
@<TRIPOS>BOND
1 1 2 1
2 2 3 1
3 2 5 1
4 3 4 ar
5 3 17 ar
6 5 6 1
7 6 7 1
8 7 8 1
9 7 9 1
10 9 10 1
11 10 11 1
12 10 12 1
13 11 16 1
14 12 13 1
15 12 14 1
16 14 15 1
17 14 16 1
18 16 27 1
19 18 19 ar
20 18 23 ar
21 19 20 ar
22 20 21 ar
23 21 22 ar
24 21 27 ar
25 22 23 ar
26 22 25 ar
27 23 24 1
28 25 26 ar
29 26 27 ar
@<TRIPOS>SUBSTRUCTURE
1	SAM7112	1	GROUP	1 A	SAM
