@<TRIPOS>MOLECULE
6WVN.A
51 53 1 0 0 
SMALL
USER_CHARGES


@<TRIPOS>ATOM
  1 N       82.3860    19.5880    24.3630 N.4   1 SAM  -0.8530 
  2 H1      82.4891    20.5481    24.6591 H     1 SAM   0.4500 
  3 H2      82.4614    19.5360    23.3572 H     1 SAM   0.4500 
  4 H3      83.1116    19.0259    24.7845 H     1 SAM   0.4500 
  5 CA      81.0560    19.0790    24.7870 C.3   1 SAM   0.3170 
  6 HA      80.9436    18.0428    24.4680 H     1 SAM   0.0800 
  7 C       79.9660    19.9310    24.1300 C.2   1 SAM   0.9060 
  8 O       80.1730    20.3880    23.0010 O.co2 1 SAM  -0.9000 
  9 CB      80.9270    19.1050    26.3160 C.3   1 SAM  -0.1600 
 10 HB1     79.9476    18.7140    26.5916 H     1 SAM   0.0800 
 11 HB2     81.0157    20.1363    26.6575 H     1 SAM   0.0800 
 12 CG      82.0030    18.2650    27.0050 C.3   1 SAM  -0.1525 
 13 HG1     82.9672    18.7534    26.8637 H     1 SAM   0.0800 
 14 HG2     82.0235    17.2793    26.5403 H     1 SAM   0.0800 
 15 SD      81.7170    18.0580    28.7830 S.3   1 SAM   0.9775 
 16 CE      82.0240    19.7040    29.3940 C.3   1 SAM  -0.2325 
 17 HE1     81.1532    20.3310    29.2023 H     1 SAM   0.0800 
 18 HE2     82.8927    20.1237    28.8867 H     1 SAM   0.0800 
 19 HE3     82.2138    19.6639    30.4666 H     1 SAM   0.0800 
 20 C5'     83.2720    17.2260    29.2090 C.3   1 SAM  -0.1525 
 21 H5'1    83.3320    17.1263    30.2928 H     1 SAM   0.0800 
 22 H5'2    84.1045    17.8331    28.8533 H     1 SAM   0.0800 
 23 C4'     83.3700    15.8480    28.5850 C.3   1 SAM   0.2000 
 24 H4'     83.1753    16.0191    27.5263 H     1 SAM   0.0800 
 25 O4'     84.6720    15.2760    28.8460 O.3   1 SAM  -0.5600 
 26 C3'     82.3520    14.8290    29.1110 C.3   1 SAM   0.2000 
 27 H3'     81.7269    15.2003    29.9231 H     1 SAM   0.0800 
 28 O3'     81.4500    14.4800    28.0680 O.3   1 SAM  -0.6800 
 29 H3'     80.8585    13.8053    28.4094 H     1 SAM   0.4000 
 30 C2'     83.2110    13.6470    29.5910 C.3   1 SAM   0.2000 
 31 H2'     83.3167    13.6130    30.6753 H     1 SAM   0.0800 
 32 O2'     82.6500    12.3950    29.2690 O.3   1 SAM  -0.6800 
 33 H2'     82.5324    12.3659    28.3167 H     1 SAM   0.4000 
 34 C1'     84.5140    13.8790    28.8380 C.3   1 SAM   0.5691 
 35 H1'     84.4513    13.4343    27.8448 H     1 SAM   0.0800 
 36 OXT     78.8910    20.1730    24.6720 O.co2 1 SAM  -0.9000 
 37 N1      88.3860    10.5120    28.2550 N.2   1 SAM  -0.6610 
 38 C2      87.4020    10.9000    27.4340 C.2   1 SAM   0.6010 
 39 H2      87.4016    10.4320    26.4607 H     1 SAM   0.0600 
 40 N3      86.4250    11.7780    27.6430 N.2   1 SAM  -0.6610 
 41 C4      86.5120    12.3110    28.8730 C.2   1 SAM   0.5000 
 42 C5      87.4650    12.0140    29.8290 C.2   1 SAM   0.4500 
 43 C6      88.4470    11.0610    29.4920 C.2   1 SAM   0.6110 
 44 N6      89.4210    10.6750    30.3160 N.2   1 SAM  -0.2000 
 45 H62     90.0951     9.9864    30.0135 H     1 SAM   0.4000 
 46 H61     89.4849    11.0711    31.2429 H     1 SAM   0.4000 
 47 N7      87.2390    12.7530    30.9800 N.2   1 SAM  -0.6960 
 48 C8      86.1740    13.4630    30.7060 C.3   1 SAM   0.4551 
 49 H81     86.4288    14.5184    30.8028 H     1 SAM   0.0800 
 50 H82     85.3959    13.2096    31.4260 H     1 SAM   0.0800 
 51 N9      85.6830    13.2490    29.4430 N.pl3 1 SAM  -0.7882 
@<TRIPOS>BOND
  1   1   2  1   
  2   1   3  1   
  3   1   4  1   
  4   1   5  1   
  5   5   6  1   
  6   5   7  1   
  7   5   9  1   
  8   7   8  ar  
  9   7  36  ar  
 10   9  10  1   
 11   9  11  1   
 12   9  12  1   
 13  12  13  1   
 14  12  14  1   
 15  12  15  1   
 16  15  16  1   
 17  15  20  1   
 18  16  17  1   
 19  16  18  1   
 20  16  19  1   
 21  20  21  1   
 22  20  22  1   
 23  20  23  1   
 24  23  24  1   
 25  23  25  1   
 26  23  26  1   
 27  25  34  1   
 28  26  27  1   
 29  26  28  1   
 30  26  30  1   
 31  28  29  1   
 32  30  31  1   
 33  30  32  1   
 34  30  34  1   
 35  32  33  1   
 36  34  35  1   
 37  34  51  1   
 38  37  38  2   
 39  37  43  1   
 40  38  39  1   
 41  38  40  1   
 42  40  41  2   
 43  41  42  1   
 44  41  51  1   
 45  42  43  1   
 46  42  47  2   
 47  43  44  2   
 48  44  45  1   
 49  44  46  1   
 50  47  48  1   
 51  48  49  1   
 52  48  50  1   
 53  48  51  1   
@<TRIPOS>SUBSTRUCTURE
  1 SAM  23 GROUP 4 A **** 0

# MOE 2022.02 (io_trps.svl 2020.11)
