# created with PyMOL 2.4.0
@<TRIPOS>MOLECULE
temp
50 52 1                 
SMALL
USER_CHARGES
@<TRIPOS>ATOM
1	   N	82.386	19.588	24.363	N.4	1	SAM1	0.000	
2	  CA	81.056	19.079	24.787	C.3	1	SAM1	0.000	
3	   C	79.966	19.931	24.130	C.2	1	SAM1	0.000	
4	   O	80.173	20.388	23.001	O.co2	1	SAM1	0.000	
5	  CB	80.927	19.105	26.316	C.3	1	SAM1	0.000	
6	  CG	82.003	18.265	27.005	C.3	1	SAM1	0.000	
7	  SD	81.717	18.058	28.783	S.3	1	SAM1	0.000	
8	  CE	82.024	19.704	29.394	C.3	1	SAM1	0.000	
9	 C5'	83.272	17.226	29.209	C.3	1	SAM1	0.000	
10	 C4'	83.370	15.848	28.585	C.3	1	SAM1	0.000	
11	 O4'	84.672	15.276	28.846	O.3	1	SAM1	0.000	
12	 C3'	82.352	14.829	29.111	C.3	1	SAM1	0.000	
13	 O3'	81.450	14.480	28.068	O.3	1	SAM1	0.000	
14	 C2'	83.211	13.647	29.591	C.3	1	SAM1	0.000	
15	 O2'	82.650	12.395	29.269	O.3	1	SAM1	0.000	
16	 C1'	84.514	13.879	28.838	C.3	1	SAM1	0.000	
17	 OXT	78.891	20.173	24.672	O.co2	1	SAM1	0.000	
18	  N1	88.386	10.512	28.255	N.2	1	SAM1	0.000	
19	  C2	87.402	10.900	27.434	C.2	1	SAM1	0.000	
20	  N3	86.425	11.778	27.643	N.2	1	SAM1	0.000	
21	  C4	86.512	12.311	28.873	C.2	1	SAM1	0.000	
22	  C5	87.465	12.014	29.829	C.2	1	SAM1	0.000	
23	  C6	88.447	11.061	29.492	C.2	1	SAM1	0.000	
24	  N6	89.421	10.675	30.316	N.pl3	1	SAM1	0.000	
25	  N7	87.239	12.753	30.980	N.2	1	SAM1	0.000	
26	  C8	86.174	13.463	30.706	C.2	1	SAM1	0.000	
27	  N9	85.683	13.249	29.443	N.2	1	SAM1	0.000	
28	  HA	80.944	18.043	24.468	 H	1	SAM1	0.000	
29	 HB1	79.948	18.714	26.592	 H	1	SAM1	0.000	
30	 HB2	81.016	20.136	26.657	 H	1	SAM1	0.000	
31	 HG1	82.967	18.753	26.864	 H	1	SAM1	0.000	
32	 HG2	82.023	17.279	26.540	 H	1	SAM1	0.000	
33	 HE1	81.153	20.331	29.202	 H	1	SAM1	0.000	
34	 HE2	82.893	20.124	28.887	 H	1	SAM1	0.000	
35	 HE3	82.214	19.664	30.467	 H	1	SAM1	0.000	
36	  H1	82.489	20.548	24.659	 H	1	SAM1	0.000	
37	  H2	82.461	19.536	23.357	 H	1	SAM1	0.000	
38	  H2	87.402	10.432	26.461	 H	1	SAM1	0.000	
39	  H3	83.112	19.026	24.785	 H	1	SAM1	0.000	
40	  H8	85.725	14.151	31.407	 H	1	SAM1	0.000	
41	 H1'	84.451	13.434	27.845	 H	1	SAM1	0.000	
42	 H2'	83.317	13.613	30.675	 H	1	SAM1	0.000	
43	 H2'	81.809	12.328	29.726	 H	1	SAM1	0.000	
44	 H3'	81.727	15.200	29.923	 H	1	SAM1	0.000	
45	 H3'	80.858	13.805	28.409	 H	1	SAM1	0.000	
46	 H4'	83.175	16.019	27.526	 H	1	SAM1	0.000	
47	 H61	89.485	11.071	31.243	 H	1	SAM1	0.000	
48	 H62	90.095	9.986	30.014	 H	1	SAM1	0.000	
49	H5'1	83.332	17.126	30.293	 H	1	SAM1	0.000	
50	H5'2	84.104	17.833	28.853	 H	1	SAM1	0.000	
@<TRIPOS>BOND
1 1 2 1
2 1 36 1
3 1 37 1
4 1 39 1
5 2 3 1
6 2 5 1
7 2 28 1
8 3 4 ar
9 3 17 ar
10 5 6 1
11 5 29 1
12 5 30 1
13 6 7 1
14 6 31 1
15 6 32 1
16 7 8 1
17 7 9 1
18 8 33 1
19 8 34 1
20 8 35 1
21 9 10 1
22 9 49 1
23 9 50 1
24 10 11 1
25 10 12 1
26 10 46 1
27 11 16 1
28 12 13 1
29 12 14 1
30 12 44 1
31 13 45 1
32 14 15 1
33 14 16 1
34 14 42 1
35 15 43 1
36 16 27 1
37 16 41 1
38 18 19 ar
39 18 23 ar
40 19 20 ar
41 19 38 1
42 20 21 ar
43 21 22 ar
44 21 27 ar
45 22 23 ar
46 22 25 ar
47 23 24 1
48 24 47 1
49 24 48 1
50 25 26 ar
51 26 27 ar
52 26 40 1
@<TRIPOS>SUBSTRUCTURE
1	SAM1	1	GROUP	1 A	SAM
