# created with PyMOL 2.5.0
@<TRIPOS>MOLECULE
6P6K
30 33 1                 
SMALL
USER_CHARGES
@<TRIPOS>ATOM
1	 N01	21.690	3.898	-13.935	N.3	1	L0J508	0.000	
2	 N01	14.896	3.619	-16.048	N.3	1	L0J508	0.000	
3	 C04	21.019	2.913	-14.795	C.3	1	L0J508	0.000	
4	 C04	16.072	2.737	-16.224	C.3	1	L0J508	0.000	
5	 C07	19.642	3.444	-15.178	C.3	1	L0J508	0.000	
6	 C07	17.440	3.432	-16.063	C.3	1	L0J508	0.000	
7	 S10	19.017	2.484	-16.580	S.o2	1	L0J508	0.000	
8	 S10	18.878	2.476	-16.673	S.o2	1	L0J508	0.000	
9	 O11	17.691	2.900	-16.920	O.2	1	L0J508	0.000	
10	 O11	18.931	2.484	-18.102	O.2	1	L0J508	0.000	
11	 O12	19.875	2.576	-17.719	O.2	1	L0J508	0.000	
12	 O12	20.107	2.968	-16.126	O.2	1	L0J508	0.000	
13	 N13	18.940	0.823	-16.092	N.3	1	L0J508	0.000	
14	 N13	18.856	0.819	-16.155	N.3	1	L0J508	0.000	
15	 C14	19.672	-0.203	-16.824	C.3	1	L0J508	0.000	
16	 C17	18.736	-1.298	-17.316	C.3	1	L0J508	0.000	
17	 C20	17.910	-1.793	-16.123	C.3	1	L0J508	0.000	
18	 C22	17.059	-0.698	-15.483	C.3	1	L0J508	0.000	
19	 C25	18.067	0.352	-15.011	C.3	1	L0J508	0.000	
20	 N28	17.026	-2.819	-16.638	N.pl3	1	L0J508	0.000	
21	 C30	16.796	-3.889	-15.901	C.2	1	L0J508	0.000	
22	 O31	17.257	-4.035	-14.772	O.2	1	L0J508	0.000	
23	 C32	15.909	-4.849	-16.528	C.2	1	L0J508	0.000	
24	 C33	15.749	-6.280	-16.228	C.2	1	L0J508	0.000	
25	 C35	14.816	-6.707	-17.098	C.2	1	L0J508	0.000	
26	 O36	14.417	-5.664	-17.898	O.2	1	L0J508	0.000	
27	 N37	15.119	-4.533	-17.520	N.2	1	L0J508	0.000	
28	 C38	14.238	-8.068	-17.247	C.3	1	L0J508	0.000	
29	 C40	13.957	-8.839	-16.011	C.3	1	L0J508	0.000	
30	 C43	15.088	-9.232	-16.894	C.3	1	L0J508	0.000	
@<TRIPOS>BOND
1 1 3 1
2 2 4 1
3 3 5 1
4 4 6 1
5 5 7 1
6 6 8 1
7 7 9 2
8 7 11 2
9 7 13 1
10 8 10 2
11 8 12 2
12 8 14 1
13 13 15 1
14 13 19 1
15 14 15 1
16 14 19 1
17 15 16 1
18 16 17 1
19 17 18 1
20 17 20 1
21 18 19 1
22 20 21 1
23 21 22 2
24 21 23 1
25 23 24 ar
26 23 27 ar
27 24 25 ar
28 25 26 ar
29 25 28 1
30 26 27 ar
31 28 29 1
32 28 30 1
33 29 30 1
@<TRIPOS>SUBSTRUCTURE
1	L0J508	1	GROUP	1 A	L0J
