# created with PyMOL 2.5.2
@<TRIPOS>MOLECULE
temp
23 25 1                 
SMALL
USER_CHARGES
@<TRIPOS>ATOM
1	 N01	21.690	3.898	-13.935	N.3	1	L0J508	0.000	
2	 C04	21.019	2.913	-14.795	C.3	1	L0J508	0.000	
3	 C07	19.642	3.444	-15.178	C.3	1	L0J508	0.000	
4	 S10	19.017	2.484	-16.580	S.O2	1	L0J508	0.000	
5	 O11	17.691	2.900	-16.920	O.2	1	L0J508	0.000	
6	 O12	19.875	2.576	-17.719	O.2	1	L0J508	0.000	
7	 N13	18.940	0.823	-16.092	N.3	1	L0J508	0.000	
8	 C14	19.672	-0.203	-16.824	C.3	1	L0J508	0.000	
9	 C17	18.736	-1.298	-17.316	C.3	1	L0J508	0.000	
10	 C20	17.910	-1.793	-16.123	C.3	1	L0J508	0.000	
11	 C22	17.059	-0.698	-15.483	C.3	1	L0J508	0.000	
12	 C25	18.067	0.352	-15.011	C.3	1	L0J508	0.000	
13	 N28	17.026	-2.819	-16.638	N.pl3	1	L0J508	0.000	
14	 C30	16.796	-3.889	-15.901	C.2	1	L0J508	0.000	
15	 O31	17.257	-4.035	-14.772	O.2	1	L0J508	0.000	
16	 C32	15.909	-4.849	-16.528	C.2	1	L0J508	0.000	
17	 C33	15.749	-6.280	-16.228	C.2	1	L0J508	0.000	
18	 C35	14.816	-6.707	-17.098	C.2	1	L0J508	0.000	
19	 O36	14.417	-5.664	-17.898	O.2	1	L0J508	0.000	
20	 N37	15.119	-4.533	-17.520	N.2	1	L0J508	0.000	
21	 C38	14.238	-8.068	-17.247	C.3	1	L0J508	0.000	
22	 C40	13.957	-8.839	-16.011	C.3	1	L0J508	0.000	
23	 C43	15.088	-9.232	-16.894	C.3	1	L0J508	0.000	
@<TRIPOS>BOND
1 1 2 1
2 2 3 1
3 3 4 1
4 4 5 2
5 4 6 2
6 4 7 1
7 7 8 1
8 7 12 1
9 8 9 1
10 9 10 1
11 10 11 1
12 10 13 1
13 11 12 1
14 13 14 1
15 14 15 2
16 14 16 1
17 16 17 ar
18 16 20 ar
19 17 18 ar
20 18 19 ar
21 18 21 1
22 19 20 ar
23 21 22 1
24 21 23 1
25 22 23 1
@<TRIPOS>SUBSTRUCTURE
1	L0J508	1	GROUP	1 A	L0J
