@<TRIPOS>MOLECULE
temp.A
45 47 1 0 0 
SMALL
USER_CHARGES


@<TRIPOS>ATOM
  1 N01     21.6900     3.8980   -13.9350 N.3   1 L0J  -0.9900 
  2 H011    21.7884     4.7699   -14.4351 H     1 L0J   0.3600 
  3 H012    22.6035     3.5529   -13.6771 H     1 L0J   0.3600 
  4 C04     21.0190     2.9130   -14.7950 C.3   1 L0J   0.1100 
  5 H041    20.9107     1.9715   -14.2565 H     1 L0J   0.0800 
  6 H042    21.6113     2.7505   -15.6955 H     1 L0J   0.0800 
  7 C07     19.6420     3.4440   -15.1780 C.3   1 L0J  -0.0548 
  8 H071    19.7192     4.4945   -15.4584 H     1 L0J   0.0800 
  9 H072    18.9619     3.3428   -14.3322 H     1 L0J   0.0800 
 10 S10     19.0170     2.4840   -16.5800 S.o2  1 L0J   1.3328 
 11 O11     17.6910     2.9000   -16.9200 O.2   1 L0J  -0.6500 
 12 O12     19.8750     2.5760   -17.7190 O.2   1 L0J  -0.6500 
 13 N13     18.9400     0.8230   -16.0920 N.am  1 L0J  -0.8494 
 14 C14     19.6720    -0.2030   -16.8240 C.3   1 L0J   0.1957 
 15 H141    20.4209    -0.6438   -16.1661 H     1 L0J   0.0800 
 16 H142    20.1658     0.2550   -17.6811 H     1 L0J   0.0800 
 17 C17     18.7360    -1.2980   -17.3160 C.3   1 L0J  -0.1600 
 18 H171    19.3172    -2.1220   -17.7298 H     1 L0J   0.0800 
 19 H172    18.0731    -0.8994   -18.0839 H     1 L0J   0.0800 
 20 C20     17.9100    -1.7930   -16.1230 C.3   1 L0J   0.2201 
 21 H20     18.5898    -2.1517   -15.3502 H     1 L0J   0.0800 
 22 C22     17.0590    -0.6980   -15.4830 C.3   1 L0J  -0.1600 
 23 H221    16.4936    -1.0943   -14.6396 H     1 L0J   0.0800 
 24 H222    16.3714    -0.2700   -16.2124 H     1 L0J   0.0800 
 25 C25     18.0670     0.3520   -15.0110 C.3   1 L0J   0.1957 
 26 H251    17.5201     1.2043   -14.6077 H     1 L0J   0.0800 
 27 H252    18.6862    -0.0858   -14.2281 H     1 L0J   0.0800 
 28 N28     17.0260    -2.8190   -16.6380 N.am  1 L0J  -0.7301 
 29 H28     16.5935    -2.7170   -17.5450 H     1 L0J   0.3700 
 30 C30     16.7960    -3.8890   -15.9010 C.2   1 L0J   0.7160 
 31 O31     17.2570    -4.0350   -14.7720 O.2   1 L0J  -0.5700 
 32 C32     15.9090    -4.8490   -16.5280 C.2   1 L0J   0.2028 
 33 C33     15.7490    -6.2800   -16.2280 C.2   1 L0J  -0.1500 
 34 H33     16.2655    -6.8589   -15.4767 H     1 L0J   0.1500 
 35 C35     14.8160    -6.7070   -17.0980 C.2   1 L0J   0.0550 
 36 O36     14.4170    -5.6640   -17.8980 O.3   1 L0J  -0.0191 
 37 N37     15.1190    -4.5330   -17.5200 N.2   1 L0J  -0.4097 
 38 C38     14.2380    -8.0680   -17.2470 C.3   1 L0J  -0.0150 
 39 H38     13.6597    -7.7773   -18.1240 H     1 L0J   0.1000 
 40 C40     13.9570    -8.8390   -16.0110 C.3   1 L0J  -0.2000 
 41 H401    13.0685    -9.4676   -15.9506 H     1 L0J   0.1000 
 42 H402    14.1557    -8.3960   -15.0351 H     1 L0J   0.1000 
 43 C43     15.0880    -9.2320   -16.8940 C.3   1 L0J  -0.2000 
 44 H431    16.1157    -9.0770   -16.5654 H     1 L0J   0.1000 
 45 H432    15.0285   -10.1486   -17.4809 H     1 L0J   0.1000 
@<TRIPOS>BOND
  1   1   2  1   
  2   1   3  1   
  3   1   4  1   
  4   4   5  1   
  5   4   6  1   
  6   4   7  1   
  7   7   8  1   
  8   7   9  1   
  9   7  10  1   
 10  10  11  2   
 11  10  12  2   
 12  10  13  am  
 13  13  14  1   
 14  13  25  1   
 15  14  15  1   
 16  14  16  1   
 17  14  17  1   
 18  17  18  1   
 19  17  19  1   
 20  17  20  1   
 21  20  21  1   
 22  20  22  1   
 23  20  28  1   
 24  22  23  1   
 25  22  24  1   
 26  22  25  1   
 27  25  26  1   
 28  25  27  1   
 29  28  29  1   
 30  28  30  am  
 31  30  31  2   
 32  30  32  1   
 33  32  33  1   
 34  32  37  2   
 35  33  34  1   
 36  33  35  2   
 37  35  36  1   
 38  35  38  1   
 39  36  37  1   
 40  38  39  1   
 41  38  40  1   
 42  38  43  1   
 43  40  41  1   
 44  40  42  1   
 45  40  43  1   
 46  43  44  1   
 47  43  45  1   
@<TRIPOS>SUBSTRUCTURE
  1 L0J  20 GROUP 4 A **** 0

# MOE 2022.02 (io_trps.svl 2020.11)
