# created with PyMOL 2.5.0
@<TRIPOS>MOLECULE
6P6K
27 29 1                 
SMALL
USER_CHARGES
@<TRIPOS>ATOM
1	   N	10.922	-14.786	-22.991	N.3	1	SAM507	0.000	
2	  CA	10.816	-14.674	-21.548	C.3	1	SAM507	0.000	
3	   C	9.842	-15.729	-21.016	C.2	1	SAM507	0.000	
4	   O	9.462	-15.706	-19.848	O.co2	1	SAM507	0.000	
5	  CB	10.406	-13.254	-21.171	C.3	1	SAM507	0.000	
6	  CG	11.619	-12.351	-20.915	C.3	1	SAM507	0.000	
7	  SD	12.540	-12.891	-19.444	S.3	1	SAM507	0.000	
8	  CE	12.684	-11.369	-18.479	C.3	1	SAM507	0.000	
9	 C5'	14.256	-12.985	-20.013	C.3	1	SAM507	0.000	
10	 C4'	14.509	-14.202	-20.893	C.3	1	SAM507	0.000	
11	 O4'	13.839	-14.059	-22.128	O.3	1	SAM507	0.000	
12	 C3'	15.973	-14.346	-21.271	C.3	1	SAM507	0.000	
13	 O3'	16.695	-14.959	-20.235	O.3	1	SAM507	0.000	
14	 C2'	15.914	-15.148	-22.561	C.3	1	SAM507	0.000	
15	 O2'	15.616	-16.495	-22.231	O.3	1	SAM507	0.000	
16	 C1'	14.665	-14.555	-23.182	C.3	1	SAM507	0.000	
17	 OXT	9.443	-16.617	-21.778	O.co2	1	SAM507	0.000	
18	  N1	16.271	-12.948	-27.883	N.2	1	SAM507	0.000	
19	  C2	16.154	-14.234	-27.414	C.2	1	SAM507	0.000	
20	  N3	15.725	-14.484	-26.133	N.2	1	SAM507	0.000	
21	  C4	15.387	-13.452	-25.342	C.2	1	SAM507	0.000	
22	  C5	15.497	-12.132	-25.798	C.2	1	SAM507	0.000	
23	  C6	15.940	-11.884	-27.088	C.2	1	SAM507	0.000	
24	  N6	16.070	-10.650	-27.582	N.pl3	1	SAM507	0.000	
25	  N7	15.118	-11.313	-24.787	N.2	1	SAM507	0.000	
26	  C8	14.784	-12.084	-23.731	C.2	1	SAM507	0.000	
27	  N9	14.949	-13.407	-24.053	N.2	1	SAM507	0.000	
@<TRIPOS>BOND
1 1 2 1
2 2 3 1
3 2 5 1
4 3 4 ar
5 3 17 ar
6 5 6 1
7 6 7 1
8 7 8 1
9 7 9 1
10 9 10 1
11 10 11 1
12 10 12 1
13 11 16 1
14 12 13 1
15 12 14 1
16 14 15 1
17 14 16 1
18 16 27 1
19 18 19 ar
20 18 23 ar
21 19 20 ar
22 20 21 ar
23 21 22 ar
24 21 27 ar
25 22 23 ar
26 22 25 ar
27 23 24 1
28 25 26 ar
29 26 27 ar
@<TRIPOS>SUBSTRUCTURE
1	SAM507	1	GROUP	1 A	SAM
