@<TRIPOS>MOLECULE
6P6K.A
51 53 1 0 0 
SMALL
USER_CHARGES


@<TRIPOS>ATOM
  1 N       10.9220   -14.7860   -22.9910 N.4   1 SAM  -0.8530 
  2 H1      10.0206   -14.6065   -23.4097 H     1 SAM   0.4500 
  3 H2      11.2271   -15.7174   -23.2349 H     1 SAM   0.4500 
  4 H3      11.5921   -14.1120   -23.3327 H     1 SAM   0.4500 
  5 CA      10.8160   -14.6740   -21.5480 C.3   1 SAM   0.3170 
  6 HA      11.7831   -14.8656   -21.0832 H     1 SAM   0.0800 
  7 C        9.8420   -15.7290   -21.0160 C.2   1 SAM   0.9060 
  8 O        9.4620   -15.7060   -19.8480 O.co2 1 SAM  -0.9000 
  9 CB      10.4060   -13.2540   -21.1710 C.3   1 SAM  -0.1600 
 10 HB1      9.7992   -13.2920   -20.2663 H     1 SAM   0.0800 
 11 HB2      9.8182   -12.8302   -21.9852 H     1 SAM   0.0800 
 12 CG      11.6190   -12.3510   -20.9150 C.3   1 SAM  -0.1525 
 13 HG1     11.2751   -11.3278   -20.7637 H     1 SAM   0.0800 
 14 HG2     12.2792   -12.3880   -21.7815 H     1 SAM   0.0800 
 15 SD      12.5400   -12.8910   -19.4440 S.3   1 SAM   0.9775 
 16 CE      12.6840   -11.3690   -18.4790 C.3   1 SAM  -0.2325 
 17 HE1     11.7184   -11.1280   -18.0343 H     1 SAM   0.0800 
 18 HE2     12.9974   -10.5537   -19.1310 H     1 SAM   0.0800 
 19 HE3     13.4230   -11.5077   -17.6898 H     1 SAM   0.0800 
 20 C5'     14.2560   -12.9850   -20.0130 C.3   1 SAM  -0.1525 
 21 H5'1    14.9109   -13.0394   -19.1433 H     1 SAM   0.0800 
 22 H5'2    14.4852   -12.0857   -20.5847 H     1 SAM   0.0800 
 23 C4'     14.5090   -14.2020   -20.8930 C.3   1 SAM   0.2000 
 24 H4'     14.1652   -15.0584   -20.3130 H     1 SAM   0.0800 
 25 O4'     13.8390   -14.0590   -22.1280 O.3   1 SAM  -0.5600 
 26 C3'     15.9730   -14.3460   -21.2710 C.3   1 SAM   0.2000 
 27 H3'     16.5017   -13.4046   -21.4207 H     1 SAM   0.0800 
 28 O3'     16.6950   -14.9590   -20.2350 O.3   1 SAM  -0.6800 
 29 H3'     17.5977   -15.0758   -20.5400 H     1 SAM   0.4000 
 30 C2'     15.9140   -15.1480   -22.5610 C.3   1 SAM   0.2000 
 31 H2'     16.8173   -15.1201   -23.1704 H     1 SAM   0.0800 
 32 O2'     15.6160   -16.4950   -22.2310 O.3   1 SAM  -0.6800 
 33 H2'     16.3635   -16.8461   -21.7416 H     1 SAM   0.4000 
 34 C1'     14.6650   -14.5550   -23.1820 C.3   1 SAM   0.5691 
 35 H1'     14.1969   -15.3417   -23.7736 H     1 SAM   0.0800 
 36 OXT      9.4430   -16.6170   -21.7780 O.co2 1 SAM  -0.9000 
 37 N1      16.2710   -12.9480   -27.8830 N.2   1 SAM  -0.6610 
 38 C2      16.1540   -14.2340   -27.4140 C.2   1 SAM   0.6010 
 39 H2      16.4031   -15.0611   -28.0623 H     1 SAM   0.0600 
 40 N3      15.7250   -14.4840   -26.1330 N.2   1 SAM  -0.6610 
 41 C4      15.3870   -13.4520   -25.3420 C.2   1 SAM   0.5000 
 42 C5      15.4970   -12.1320   -25.7980 C.2   1 SAM   0.4500 
 43 C6      15.9400   -11.8840   -27.0880 C.2   1 SAM   0.6110 
 44 N6      16.0700   -10.6500   -27.5820 N.2   1 SAM  -0.2000 
 45 H62     16.3967   -10.5167   -28.5284 H     1 SAM   0.4000 
 46 H61     15.8416    -9.8501   -27.0092 H     1 SAM   0.4000 
 47 N7      15.1180   -11.3130   -24.7870 N.2   1 SAM  -0.6960 
 48 C8      14.7840   -12.0840   -23.7310 C.3   1 SAM   0.4551 
 49 H81     13.7424   -11.9031   -23.4655 H     1 SAM   0.0800 
 50 H82     15.4234   -11.8349   -22.8841 H     1 SAM   0.0800 
 51 N9      14.9490   -13.4070   -24.0530 N.pl3 1 SAM  -0.7882 
@<TRIPOS>BOND
  1   1   2  1   
  2   1   3  1   
  3   1   4  1   
  4   1   5  1   
  5   5   6  1   
  6   5   7  1   
  7   5   9  1   
  8   7   8  ar  
  9   7  36  ar  
 10   9  10  1   
 11   9  11  1   
 12   9  12  1   
 13  12  13  1   
 14  12  14  1   
 15  12  15  1   
 16  15  16  1   
 17  15  20  1   
 18  16  17  1   
 19  16  18  1   
 20  16  19  1   
 21  20  21  1   
 22  20  22  1   
 23  20  23  1   
 24  23  24  1   
 25  23  25  1   
 26  23  26  1   
 27  25  34  1   
 28  26  27  1   
 29  26  28  1   
 30  26  30  1   
 31  28  29  1   
 32  30  31  1   
 33  30  32  1   
 34  30  34  1   
 35  32  33  1   
 36  34  35  1   
 37  34  51  1   
 38  37  38  2   
 39  37  43  1   
 40  38  39  1   
 41  38  40  1   
 42  40  41  2   
 43  41  42  1   
 44  41  51  1   
 45  42  43  1   
 46  42  47  2   
 47  43  44  2   
 48  44  45  1   
 49  44  46  1   
 50  47  48  1   
 51  48  49  1   
 52  48  50  1   
 53  48  51  1   
@<TRIPOS>SUBSTRUCTURE
  1 SAM  25 GROUP 4 A **** 0

# MOE 2022.02 (io_trps.svl 2020.11)
