# created with PyMOL 2.4.0
@<TRIPOS>MOLECULE
temp
50 52 1                 
SMALL
USER_CHARGES
@<TRIPOS>ATOM
1	   N	10.922	-14.786	-22.991	N.4	1	SAM1	0.000	
2	  CA	10.816	-14.674	-21.548	C.3	1	SAM1	0.000	
3	   C	9.842	-15.729	-21.016	C.2	1	SAM1	0.000	
4	   O	9.462	-15.706	-19.848	O.co2	1	SAM1	0.000	
5	  CB	10.406	-13.254	-21.171	C.3	1	SAM1	0.000	
6	  CG	11.619	-12.351	-20.915	C.3	1	SAM1	0.000	
7	  SD	12.540	-12.891	-19.444	S.3	1	SAM1	0.000	
8	  CE	12.684	-11.369	-18.479	C.3	1	SAM1	0.000	
9	 C5'	14.256	-12.985	-20.013	C.3	1	SAM1	0.000	
10	 C4'	14.509	-14.202	-20.893	C.3	1	SAM1	0.000	
11	 O4'	13.839	-14.059	-22.128	O.3	1	SAM1	0.000	
12	 C3'	15.973	-14.346	-21.271	C.3	1	SAM1	0.000	
13	 O3'	16.695	-14.959	-20.235	O.3	1	SAM1	0.000	
14	 C2'	15.914	-15.148	-22.561	C.3	1	SAM1	0.000	
15	 O2'	15.616	-16.495	-22.231	O.3	1	SAM1	0.000	
16	 C1'	14.665	-14.555	-23.182	C.3	1	SAM1	0.000	
17	 OXT	9.443	-16.617	-21.778	O.co2	1	SAM1	0.000	
18	  N1	16.271	-12.948	-27.883	N.2	1	SAM1	0.000	
19	  C2	16.154	-14.234	-27.414	C.2	1	SAM1	0.000	
20	  N3	15.725	-14.484	-26.133	N.2	1	SAM1	0.000	
21	  C4	15.387	-13.452	-25.342	C.2	1	SAM1	0.000	
22	  C5	15.497	-12.132	-25.798	C.2	1	SAM1	0.000	
23	  C6	15.940	-11.884	-27.088	C.2	1	SAM1	0.000	
24	  N6	16.070	-10.650	-27.582	N.pl3	1	SAM1	0.000	
25	  N7	15.118	-11.313	-24.787	N.2	1	SAM1	0.000	
26	  C8	14.784	-12.084	-23.731	C.2	1	SAM1	0.000	
27	  N9	14.949	-13.407	-24.053	N.2	1	SAM1	0.000	
28	  HA	11.783	-14.866	-21.083	 H	1	SAM1	0.000	
29	 HB1	9.799	-13.292	-20.266	 H	1	SAM1	0.000	
30	 HB2	9.818	-12.830	-21.985	 H	1	SAM1	0.000	
31	 HG1	11.275	-11.328	-20.764	 H	1	SAM1	0.000	
32	 HG2	12.279	-12.388	-21.781	 H	1	SAM1	0.000	
33	 HE1	11.718	-11.128	-18.034	 H	1	SAM1	0.000	
34	 HE2	12.997	-10.554	-19.131	 H	1	SAM1	0.000	
35	 HE3	13.423	-11.508	-17.690	 H	1	SAM1	0.000	
36	  H1	10.021	-14.606	-23.410	 H	1	SAM1	0.000	
37	  H2	11.227	-15.717	-23.235	 H	1	SAM1	0.000	
38	  H2	16.403	-15.061	-28.062	 H	1	SAM1	0.000	
39	  H3	11.592	-14.112	-23.333	 H	1	SAM1	0.000	
40	  H8	14.439	-11.715	-22.776	 H	1	SAM1	0.000	
41	 H1'	14.197	-15.342	-23.774	 H	1	SAM1	0.000	
42	 H2'	16.817	-15.120	-23.170	 H	1	SAM1	0.000	
43	 H2'	16.364	-16.846	-21.742	 H	1	SAM1	0.000	
44	 H3'	16.502	-13.405	-21.421	 H	1	SAM1	0.000	
45	 H3'	17.598	-15.076	-20.540	 H	1	SAM1	0.000	
46	 H4'	14.165	-15.058	-20.313	 H	1	SAM1	0.000	
47	 H61	15.842	-9.850	-27.009	 H	1	SAM1	0.000	
48	 H62	16.397	-10.517	-28.528	 H	1	SAM1	0.000	
49	H5'1	14.911	-13.039	-19.143	 H	1	SAM1	0.000	
50	H5'2	14.485	-12.086	-20.585	 H	1	SAM1	0.000	
@<TRIPOS>BOND
1 1 2 1
2 1 36 1
3 1 37 1
4 1 39 1
5 2 3 1
6 2 5 1
7 2 28 1
8 3 4 ar
9 3 17 ar
10 5 6 1
11 5 29 1
12 5 30 1
13 6 7 1
14 6 31 1
15 6 32 1
16 7 8 1
17 7 9 1
18 8 33 1
19 8 34 1
20 8 35 1
21 9 10 1
22 9 49 1
23 9 50 1
24 10 11 1
25 10 12 1
26 10 46 1
27 11 16 1
28 12 13 1
29 12 14 1
30 12 44 1
31 13 45 1
32 14 15 1
33 14 16 1
34 14 42 1
35 15 43 1
36 16 27 1
37 16 41 1
38 18 19 ar
39 18 23 ar
40 19 20 ar
41 19 38 1
42 20 21 ar
43 21 22 ar
44 21 27 ar
45 22 23 ar
46 22 25 ar
47 23 24 1
48 24 47 1
49 24 48 1
50 25 26 ar
51 26 27 ar
52 26 40 1
@<TRIPOS>SUBSTRUCTURE
1	SAM1	1	GROUP	1 A	SAM
