# created with PyMOL 2.4.0
@<TRIPOS>MOLECULE
temp
50 52 1                 
SMALL
USER_CHARGES
@<TRIPOS>ATOM
1	   N	-6.285	34.595	4.015	N.4	1	SAM1	0.000	
2	  CA	-6.301	33.441	3.058	C.3	1	SAM1	0.000	
3	   C	-6.194	32.143	3.888	C.2	1	SAM1	0.000	
4	   O	-5.156	31.463	3.939	O.co2	1	SAM1	0.000	
5	  CB	-5.228	33.632	1.956	C.3	1	SAM1	0.000	
6	  CG	-5.383	34.808	0.972	C.3	1	SAM1	0.000	
7	  SD	-3.984	35.999	0.910	S.3	1	SAM1	0.000	
8	  CE	-4.665	37.665	0.763	C.3	1	SAM1	0.000	
9	 C5'	-3.292	35.724	-0.724	C.3	1	SAM1	0.000	
10	 C4'	-2.009	36.541	-0.834	C.3	1	SAM1	0.000	
11	 O4'	-1.021	35.758	-1.458	O.3	1	SAM1	0.000	
12	 C3'	-2.195	37.765	-1.716	C.3	1	SAM1	0.000	
13	 O3'	-1.214	38.729	-1.331	O.3	1	SAM1	0.000	
14	 C2'	-1.952	37.127	-3.085	C.3	1	SAM1	0.000	
15	 O2'	-1.708	38.006	-4.155	O.3	1	SAM1	0.000	
16	 C1'	-0.743	36.254	-2.765	C.3	1	SAM1	0.000	
17	 OXT	-7.158	31.748	4.566	O.co2	1	SAM1	0.000	
18	  N1	2.938	33.313	-5.063	N.2	1	SAM1	0.000	
19	  C2	3.093	34.402	-4.220	C.2	1	SAM1	0.000	
20	  N3	1.993	35.070	-3.696	N.2	1	SAM1	0.000	
21	  C4	0.733	34.648	-4.010	C.2	1	SAM1	0.000	
22	  C5	0.539	33.531	-4.836	C.2	1	SAM1	0.000	
23	  C6	1.658	32.860	-5.356	C.2	1	SAM1	0.000	
24	  N6	1.480	31.809	-6.154	N.pl3	1	SAM1	0.000	
25	  N7	-0.805	33.339	-4.974	N.2	1	SAM1	0.000	
26	  C8	-1.455	34.298	-4.255	C.2	1	SAM1	0.000	
27	  N9	-0.517	35.112	-3.662	N.2	1	SAM1	0.000	
28	  HA	-7.233	33.378	2.497	 H	1	SAM1	0.000	
29	 HB1	-5.210	32.717	1.363	 H	1	SAM1	0.000	
30	 HB2	-4.269	33.758	2.459	 H	1	SAM1	0.000	
31	 HG1	-6.279	35.361	1.252	 H	1	SAM1	0.000	
32	 HG2	-5.511	34.392	-0.027	 H	1	SAM1	0.000	
33	 HE1	-5.123	37.955	1.709	 H	1	SAM1	0.000	
34	 HE2	-5.418	37.682	-0.025	 H	1	SAM1	0.000	
35	 HE3	-3.866	38.364	0.517	 H	1	SAM1	0.000	
36	  H1	-5.404	34.611	4.509	 H	1	SAM1	0.000	
37	  H2	-7.041	34.493	4.677	 H	1	SAM1	0.000	
38	  H2	4.087	34.738	-3.966	 H	1	SAM1	0.000	
39	  H3	-6.400	35.458	3.503	 H	1	SAM1	0.000	
40	  H8	-2.526	34.401	-4.166	 H	1	SAM1	0.000	
41	 H1'	0.161	36.853	-2.870	 H	1	SAM1	0.000	
42	 H2'	-2.836	36.612	-3.461	 H	1	SAM1	0.000	
43	 H2'	-2.483	38.564	-4.256	 H	1	SAM1	0.000	
44	 H3'	-3.143	38.301	-1.672	 H	1	SAM1	0.000	
45	 H3'	-1.257	39.454	-1.959	 H	1	SAM1	0.000	
46	 H4'	-1.732	36.846	0.175	 H	1	SAM1	0.000	
47	 H61	0.546	31.500	-6.381	 H	1	SAM1	0.000	
48	 H62	2.279	31.321	-6.532	 H	1	SAM1	0.000	
49	H5'1	-4.002	36.046	-1.486	 H	1	SAM1	0.000	
50	H5'2	-3.069	34.666	-0.859	 H	1	SAM1	0.000	
@<TRIPOS>BOND
1 1 2 1
2 1 36 1
3 1 37 1
4 1 39 1
5 2 3 1
6 2 5 1
7 2 28 1
8 3 4 ar
9 3 17 ar
10 5 6 1
11 5 29 1
12 5 30 1
13 6 7 1
14 6 31 1
15 6 32 1
16 7 8 1
17 7 9 1
18 8 33 1
19 8 34 1
20 8 35 1
21 9 10 1
22 9 49 1
23 9 50 1
24 10 11 1
25 10 12 1
26 10 46 1
27 11 16 1
28 12 13 1
29 12 14 1
30 12 44 1
31 13 45 1
32 14 15 1
33 14 16 1
34 14 42 1
35 15 43 1
36 16 27 1
37 16 41 1
38 18 19 ar
39 18 23 ar
40 19 20 ar
41 19 38 1
42 20 21 ar
43 21 22 ar
44 21 27 ar
45 22 23 ar
46 22 25 ar
47 23 24 1
48 24 47 1
49 24 48 1
50 25 26 ar
51 26 27 ar
52 26 40 1
@<TRIPOS>SUBSTRUCTURE
1	SAM1	1	GROUP	1 A	SAM
