# created with PyMOL 2.4.0
@<TRIPOS>MOLECULE
temp
50 52 1                 
SMALL
USER_CHARGES
@<TRIPOS>ATOM
1	   N	-25.654	-33.913	18.583	N.4	1	SAM1	0.000	
2	  CA	-25.672	-33.240	19.908	C.3	1	SAM1	0.000	
3	   C	-25.721	-31.728	19.757	C.2	1	SAM1	0.000	
4	   O	-25.921	-31.041	20.757	O.co2	1	SAM1	0.000	
5	  CB	-24.472	-33.669	20.749	C.3	1	SAM1	0.000	
6	  CG	-24.884	-34.228	22.102	C.3	1	SAM1	0.000	
7	  SD	-23.536	-34.898	23.111	S.3	1	SAM1	0.000	
8	  CE	-22.530	-33.456	23.396	C.3	1	SAM1	0.000	
9	 C5'	-22.372	-35.809	22.085	C.3	1	SAM1	0.000	
10	 C4'	-21.208	-36.287	22.972	C.3	1	SAM1	0.000	
11	 O4'	-20.504	-35.279	23.722	O.3	1	SAM1	0.000	
12	 C3'	-21.667	-37.313	23.993	C.3	1	SAM1	0.000	
13	 O3'	-20.777	-38.389	23.799	O.3	1	SAM1	0.000	
14	 C2'	-21.475	-36.610	25.335	C.3	1	SAM1	0.000	
15	 O2'	-21.259	-37.481	26.443	O.3	1	SAM1	0.000	
16	 C1'	-20.269	-35.737	25.041	C.3	1	SAM1	0.000	
17	 OXT	-25.566	-31.181	18.649	O.co2	1	SAM1	0.000	
18	  N1	-16.655	-32.845	27.382	N.2	1	SAM1	0.000	
19	  C2	-16.461	-33.946	26.569	C.2	1	SAM1	0.000	
20	  N3	-17.556	-34.583	26.055	N.2	1	SAM1	0.000	
21	  C4	-18.818	-34.127	26.325	C.2	1	SAM1	0.000	
22	  C5	-19.034	-33.010	27.143	C.2	1	SAM1	0.000	
23	  C6	-17.927	-32.349	27.668	C.2	1	SAM1	0.000	
24	  N6	-18.070	-31.269	28.467	N.pl3	1	SAM1	0.000	
25	  N7	-20.384	-32.806	27.227	N.2	1	SAM1	0.000	
26	  C8	-21.006	-33.759	26.497	C.2	1	SAM1	0.000	
27	  N9	-20.059	-34.583	25.939	N.2	1	SAM1	0.000	
28	  HA	-26.578	-33.549	20.429	 H	1	SAM1	0.000	
29	 HB1	-23.829	-32.804	20.909	 H	1	SAM1	0.000	
30	 HB2	-23.920	-34.437	20.206	 H	1	SAM1	0.000	
31	 HG1	-25.604	-35.028	21.930	 H	1	SAM1	0.000	
32	 HG2	-25.360	-33.426	22.666	 H	1	SAM1	0.000	
33	 HE1	-23.075	-32.751	24.023	 H	1	SAM1	0.000	
34	 HE2	-22.291	-32.985	22.442	 H	1	SAM1	0.000	
35	 HE3	-21.608	-33.750	23.897	 H	1	SAM1	0.000	
36	  H1	-24.821	-33.643	18.079	 H	1	SAM1	0.000	
37	  H2	-26.471	-33.639	18.055	 H	1	SAM1	0.000	
38	  H2	-15.464	-34.296	26.344	 H	1	SAM1	0.000	
39	  H3	-25.658	-34.915	18.714	 H	1	SAM1	0.000	
40	  H8	-22.074	-33.857	26.373	 H	1	SAM1	0.000	
41	 H1'	-19.362	-36.324	25.185	 H	1	SAM1	0.000	
42	 H2'	-22.366	-36.071	25.656	 H	1	SAM1	0.000	
43	 H2'	-22.039	-38.034	26.534	 H	1	SAM1	0.000	
44	 H3'	-22.693	-37.674	23.926	 H	1	SAM1	0.000	
45	 H3'	-20.949	-39.036	24.487	 H	1	SAM1	0.000	
46	 H4'	-20.521	-36.691	22.228	 H	1	SAM1	0.000	
47	 H61	-18.993	-30.927	28.694	 H	1	SAM1	0.000	
48	 H62	-17.254	-30.803	28.838	 H	1	SAM1	0.000	
49	H5'1	-21.991	-35.160	21.297	 H	1	SAM1	0.000	
50	H5'2	-22.871	-36.669	21.638	 H	1	SAM1	0.000	
@<TRIPOS>BOND
1 1 2 1
2 1 36 1
3 1 37 1
4 1 39 1
5 2 3 1
6 2 5 1
7 2 28 1
8 3 4 ar
9 3 17 ar
10 5 6 1
11 5 29 1
12 5 30 1
13 6 7 1
14 6 31 1
15 6 32 1
16 7 8 1
17 7 9 1
18 8 33 1
19 8 34 1
20 8 35 1
21 9 10 1
22 9 49 1
23 9 50 1
24 10 11 1
25 10 12 1
26 10 46 1
27 11 16 1
28 12 13 1
29 12 14 1
30 12 44 1
31 13 45 1
32 14 15 1
33 14 16 1
34 14 42 1
35 15 43 1
36 16 27 1
37 16 41 1
38 18 19 ar
39 18 23 ar
40 19 20 ar
41 19 38 1
42 20 21 ar
43 21 22 ar
44 21 27 ar
45 22 23 ar
46 22 25 ar
47 23 24 1
48 24 47 1
49 24 48 1
50 25 26 ar
51 26 27 ar
52 26 40 1
@<TRIPOS>SUBSTRUCTURE
1	SAM1	1	GROUP	1 B	SAM
