@<TRIPOS>MOLECULE
1ZQ9.B
51 53 1 0 0 
SMALL
USER_CHARGES


@<TRIPOS>ATOM
  1 N      -25.6540   -33.9130    18.5830 N.4   1 SAM  -0.8530 
  2 H1     -24.8214   -33.6425    18.0793 H     1 SAM   0.4500 
  3 H2     -26.4705   -33.6393    18.0553 H     1 SAM   0.4500 
  4 H3     -25.6579   -34.9145    18.7140 H     1 SAM   0.4500 
  5 CA     -25.6720   -33.2400    19.9080 C.3   1 SAM   0.3170 
  6 HA     -26.5784   -33.5486    20.4288 H     1 SAM   0.0800 
  7 C      -25.7210   -31.7280    19.7570 C.2   1 SAM   0.9060 
  8 O      -25.9210   -31.0410    20.7570 O.co2 1 SAM  -0.9000 
  9 CB     -24.4720   -33.6690    20.7490 C.3   1 SAM  -0.1600 
 10 HB1    -23.8288   -32.8036    20.9087 H     1 SAM   0.0800 
 11 HB2    -23.9203   -34.4365    20.2062 H     1 SAM   0.0800 
 12 CG     -24.8840   -34.2280    22.1020 C.3   1 SAM  -0.1525 
 13 HG1    -25.6044   -35.0277    21.9300 H     1 SAM   0.0800 
 14 HG2    -25.3595   -33.4258    22.6664 H     1 SAM   0.0800 
 15 SD     -23.5360   -34.8980    23.1110 S.3   1 SAM   0.9775 
 16 CE     -22.5300   -33.4560    23.3960 C.3   1 SAM  -0.2325 
 17 HE1    -23.0754   -32.7507    24.0231 H     1 SAM   0.0800 
 18 HE2    -22.2914   -32.9852    22.4423 H     1 SAM   0.0800 
 19 HE3    -21.6076   -33.7497    23.8970 H     1 SAM   0.0800 
 20 C5'    -22.3720   -35.8090    22.0850 C.3   1 SAM  -0.1525 
 21 H5'1   -21.9908   -35.1600    21.2966 H     1 SAM   0.0800 
 22 H5'2   -22.8708   -36.6690    21.6382 H     1 SAM   0.0800 
 23 C4'    -21.2080   -36.2870    22.9720 C.3   1 SAM   0.2000 
 24 H4'    -20.5212   -36.6906    22.2280 H     1 SAM   0.0800 
 25 O4'    -20.5040   -35.2790    23.7220 O.3   1 SAM  -0.5600 
 26 C3'    -21.6670   -37.3130    23.9930 C.3   1 SAM   0.2000 
 27 H3'    -22.6933   -37.6742    23.9263 H     1 SAM   0.0800 
 28 O3'    -20.7770   -38.3890    23.7990 O.3   1 SAM  -0.6800 
 29 H3'    -20.9495   -39.0360    24.4869 H     1 SAM   0.4000 
 30 C2'    -21.4750   -36.6100    25.3350 C.3   1 SAM   0.2000 
 31 H2'    -22.3664   -36.0711    25.6560 H     1 SAM   0.0800 
 32 O2'    -21.2590   -37.4810    26.4430 O.3   1 SAM  -0.6800 
 33 H2'    -20.4795   -38.0074    26.2508 H     1 SAM   0.4000 
 34 C1'    -20.2690   -35.7370    25.0410 C.3   1 SAM   0.5691 
 35 H1'    -19.3618   -36.3238    25.1850 H     1 SAM   0.0800 
 36 OXT    -25.5660   -31.1810    18.6490 O.co2 1 SAM  -0.9000 
 37 N1     -16.6550   -32.8450    27.3820 N.2   1 SAM  -0.6610 
 38 C2     -16.4610   -33.9460    26.5690 C.2   1 SAM   0.6010 
 39 H2     -15.4643   -34.2960    26.3443 H     1 SAM   0.0600 
 40 N3     -17.5560   -34.5830    26.0550 N.2   1 SAM  -0.6610 
 41 C4     -18.8180   -34.1270    26.3250 C.2   1 SAM   0.5000 
 42 C5     -19.0340   -33.0100    27.1430 C.2   1 SAM   0.4500 
 43 C6     -17.9270   -32.3490    27.6680 C.2   1 SAM   0.6110 
 44 N6     -18.0700   -31.2690    28.4670 N.2   1 SAM  -0.2000 
 45 H62    -17.2539   -30.8035    28.8378 H     1 SAM   0.4000 
 46 H61    -18.9930   -30.9271    28.6935 H     1 SAM   0.4000 
 47 N7     -20.3840   -32.8060    27.2270 N.2   1 SAM  -0.6960 
 48 C8     -21.0060   -33.7590    26.4970 C.3   1 SAM   0.4551 
 49 H81    -21.5932   -33.2898    25.7076 H     1 SAM   0.0800 
 50 H82    -21.6639   -34.3420    27.1415 H     1 SAM   0.0800 
 51 N9     -20.0590   -34.5830    25.9390 N.pl3 1 SAM  -0.7882 
@<TRIPOS>BOND
  1   1   2  1   
  2   1   3  1   
  3   1   4  1   
  4   1   5  1   
  5   5   6  1   
  6   5   7  1   
  7   5   9  1   
  8   7   8  ar  
  9   7  36  ar  
 10   9  10  1   
 11   9  11  1   
 12   9  12  1   
 13  12  13  1   
 14  12  14  1   
 15  12  15  1   
 16  15  16  1   
 17  15  20  1   
 18  16  17  1   
 19  16  18  1   
 20  16  19  1   
 21  20  21  1   
 22  20  22  1   
 23  20  23  1   
 24  23  24  1   
 25  23  25  1   
 26  23  26  1   
 27  25  34  1   
 28  26  27  1   
 29  26  28  1   
 30  26  30  1   
 31  28  29  1   
 32  30  31  1   
 33  30  32  1   
 34  30  34  1   
 35  32  33  1   
 36  34  35  1   
 37  34  51  1   
 38  37  38  2   
 39  37  43  1   
 40  38  39  1   
 41  38  40  1   
 42  40  41  2   
 43  41  42  1   
 44  41  51  1   
 45  42  43  1   
 46  42  47  2   
 47  43  44  2   
 48  44  45  1   
 49  44  46  1   
 50  47  48  1   
 51  48  49  1   
 52  48  50  1   
 53  48  51  1   
@<TRIPOS>SUBSTRUCTURE
  1 SAM  16 GROUP 4 B **** 0

# MOE 2022.02 (io_trps.svl 2020.11)
