@<TRIPOS>MOLECULE
1ZQ9.A
51 53 1 0 0 
SMALL
USER_CHARGES


@<TRIPOS>ATOM
  1 N       -6.2850    34.5950     4.0150 N.4   1 SAM  -0.8530 
  2 H1      -5.4041    34.6107     4.5088 H     1 SAM   0.4500 
  3 H2      -7.0406    34.4935     4.6775 H     1 SAM   0.4500 
  4 H3      -6.3996    35.4583     3.5034 H     1 SAM   0.4500 
  5 CA      -6.3010    33.4410     3.0580 C.3   1 SAM   0.3170 
  6 HA      -7.2334    33.3776     2.4969 H     1 SAM   0.0800 
  7 C       -6.1940    32.1430     3.8880 C.2   1 SAM   0.9060 
  8 O       -5.1560    31.4630     3.9390 O.co2 1 SAM  -0.9000 
  9 CB      -5.2280    33.6320     1.9560 C.3   1 SAM  -0.1600 
 10 HB1     -5.2096    32.7174     1.3634 H     1 SAM   0.0800 
 11 HB2     -4.2694    33.7582     2.4592 H     1 SAM   0.0800 
 12 CG      -5.3830    34.8080     0.9720 C.3   1 SAM  -0.1525 
 13 HG1     -6.2793    35.3612     1.2524 H     1 SAM   0.0800 
 14 HG2     -5.5107    34.3917    -0.0272 H     1 SAM   0.0800 
 15 SD      -3.9840    35.9990     0.9100 S.3   1 SAM   0.9775 
 16 CE      -4.6650    37.6650     0.7630 C.3   1 SAM  -0.2325 
 17 HE1     -5.1230    37.9550     1.7086 H     1 SAM   0.0800 
 18 HE2     -5.4175    37.6817    -0.0254 H     1 SAM   0.0800 
 19 HE3     -3.8656    38.3639     0.5170 H     1 SAM   0.0800 
 20 C5'     -3.2920    35.7240    -0.7240 C.3   1 SAM  -0.1525 
 21 H5'1    -4.0022    36.0456    -1.4858 H     1 SAM   0.0800 
 22 H5'2    -3.0695    34.6655    -0.8585 H     1 SAM   0.0800 
 23 C4'     -2.0090    36.5410    -0.8340 C.3   1 SAM   0.2000 
 24 H4'     -1.7319    36.8455     0.1753 H     1 SAM   0.0800 
 25 O4'     -1.0210    35.7580    -1.4580 O.3   1 SAM  -0.5600 
 26 C3'     -2.1950    37.7650    -1.7160 C.3   1 SAM   0.2000 
 27 H3'     -3.1431    38.3010    -1.6718 H     1 SAM   0.0800 
 28 O3'     -1.2140    38.7290    -1.3310 O.3   1 SAM  -0.6800 
 29 H3'     -1.2572    39.4538    -1.9590 H     1 SAM   0.4000 
 30 C2'     -1.9520    37.1270    -3.0850 C.3   1 SAM   0.2000 
 31 H2'     -2.8362    36.6125    -3.4614 H     1 SAM   0.0800 
 32 O2'     -1.7080    38.0060    -4.1550 O.3   1 SAM  -0.6800 
 33 H2'     -1.5578    37.4736    -4.9396 H     1 SAM   0.4000 
 34 C1'     -0.7430    36.2540    -2.7650 C.3   1 SAM   0.5691 
 35 H1'      0.1614    36.8533    -2.8700 H     1 SAM   0.0800 
 36 OXT     -7.1580    31.7480     4.5660 O.co2 1 SAM  -0.9000 
 37 N1       2.9380    33.3130    -5.0630 N.2   1 SAM  -0.6610 
 38 C2       3.0930    34.4020    -4.2200 C.2   1 SAM   0.6010 
 39 H2       4.0874    34.7378    -3.9655 H     1 SAM   0.0600 
 40 N3       1.9930    35.0700    -3.6960 N.2   1 SAM  -0.6610 
 41 C4       0.7330    34.6480    -4.0100 C.2   1 SAM   0.5000 
 42 C5       0.5390    33.5310    -4.8360 C.2   1 SAM   0.4500 
 43 C6       1.6580    32.8600    -5.3560 C.2   1 SAM   0.6110 
 44 N6       1.4800    31.8090    -6.1540 N.2   1 SAM  -0.2000 
 45 H62      2.2793    31.3209    -6.5321 H     1 SAM   0.4000 
 46 H61      0.5457    31.4999    -6.3812 H     1 SAM   0.4000 
 47 N7      -0.8050    33.3390    -4.9740 N.2   1 SAM  -0.6960 
 48 C8      -1.4550    34.2980    -4.2550 C.3   1 SAM   0.4551 
 49 H81     -2.0710    33.8281    -3.4883 H     1 SAM   0.0800 
 50 H82     -2.0876    34.8885    -4.9177 H     1 SAM   0.0800 
 51 N9      -0.5170    35.1120    -3.6620 N.pl3 1 SAM  -0.7882 
@<TRIPOS>BOND
  1   1   2  1   
  2   1   3  1   
  3   1   4  1   
  4   1   5  1   
  5   5   6  1   
  6   5   7  1   
  7   5   9  1   
  8   7   8  ar  
  9   7  36  ar  
 10   9  10  1   
 11   9  11  1   
 12   9  12  1   
 13  12  13  1   
 14  12  14  1   
 15  12  15  1   
 16  15  16  1   
 17  15  20  1   
 18  16  17  1   
 19  16  18  1   
 20  16  19  1   
 21  20  21  1   
 22  20  22  1   
 23  20  23  1   
 24  23  24  1   
 25  23  25  1   
 26  23  26  1   
 27  25  34  1   
 28  26  27  1   
 29  26  28  1   
 30  26  30  1   
 31  28  29  1   
 32  30  31  1   
 33  30  32  1   
 34  30  34  1   
 35  32  33  1   
 36  34  35  1   
 37  34  51  1   
 38  37  38  2   
 39  37  43  1   
 40  38  39  1   
 41  38  40  1   
 42  40  41  2   
 43  41  42  1   
 44  41  51  1   
 45  42  43  1   
 46  42  47  2   
 47  43  44  2   
 48  44  45  1   
 49  44  46  1   
 50  47  48  1   
 51  48  49  1   
 52  48  50  1   
 53  48  51  1   
@<TRIPOS>SUBSTRUCTURE
  1 SAM  25 GROUP 4 A **** 0

# MOE 2022.02 (io_trps.svl 2020.11)
