# created with PyMOL 2.5.0
@<TRIPOS>MOLECULE
1ZQ9
27 29 1                 
SMALL
USER_CHARGES
@<TRIPOS>ATOM
1	   N	-25.654	-33.913	18.583	N.3	1	SAM4001	0.000	
2	  CA	-25.672	-33.240	19.908	C.3	1	SAM4001	0.000	
3	   C	-25.721	-31.728	19.757	C.2	1	SAM4001	0.000	
4	   O	-25.921	-31.041	20.757	O.co2	1	SAM4001	0.000	
5	  CB	-24.472	-33.669	20.749	C.3	1	SAM4001	0.000	
6	  CG	-24.884	-34.228	22.102	C.3	1	SAM4001	0.000	
7	  SD	-23.536	-34.898	23.111	S.3	1	SAM4001	0.000	
8	  CE	-22.530	-33.456	23.396	C.3	1	SAM4001	0.000	
9	 C5'	-22.372	-35.809	22.085	C.3	1	SAM4001	0.000	
10	 C4'	-21.208	-36.287	22.972	C.3	1	SAM4001	0.000	
11	 O4'	-20.504	-35.279	23.722	O.3	1	SAM4001	0.000	
12	 C3'	-21.667	-37.313	23.993	C.3	1	SAM4001	0.000	
13	 O3'	-20.777	-38.389	23.799	O.3	1	SAM4001	0.000	
14	 C2'	-21.475	-36.610	25.335	C.3	1	SAM4001	0.000	
15	 O2'	-21.259	-37.481	26.443	O.3	1	SAM4001	0.000	
16	 C1'	-20.269	-35.737	25.041	C.3	1	SAM4001	0.000	
17	 OXT	-25.566	-31.181	18.649	O.co2	1	SAM4001	0.000	
18	  N1	-16.655	-32.845	27.382	N.2	1	SAM4001	0.000	
19	  C2	-16.461	-33.946	26.569	C.2	1	SAM4001	0.000	
20	  N3	-17.556	-34.583	26.055	N.2	1	SAM4001	0.000	
21	  C4	-18.818	-34.127	26.325	C.2	1	SAM4001	0.000	
22	  C5	-19.034	-33.010	27.143	C.2	1	SAM4001	0.000	
23	  C6	-17.927	-32.349	27.668	C.2	1	SAM4001	0.000	
24	  N6	-18.070	-31.269	28.467	N.pl3	1	SAM4001	0.000	
25	  N7	-20.384	-32.806	27.227	N.2	1	SAM4001	0.000	
26	  C8	-21.006	-33.759	26.497	C.2	1	SAM4001	0.000	
27	  N9	-20.059	-34.583	25.939	N.2	1	SAM4001	0.000	
@<TRIPOS>BOND
1 1 2 1
2 2 3 1
3 2 5 1
4 3 4 ar
5 3 17 ar
6 5 6 1
7 6 7 1
8 7 8 1
9 7 9 1
10 9 10 1
11 10 11 1
12 10 12 1
13 11 16 1
14 12 13 1
15 12 14 1
16 14 15 1
17 14 16 1
18 16 27 1
19 18 19 ar
20 18 23 ar
21 19 20 ar
22 20 21 ar
23 21 22 ar
24 21 27 ar
25 22 23 ar
26 22 25 ar
27 23 24 1
28 25 26 ar
29 26 27 ar
@<TRIPOS>SUBSTRUCTURE
1	SAM4001	1	GROUP	1 B	SAM
