# created with PyMOL 2.5.0
@<TRIPOS>MOLECULE
1ZQ9
27 29 1                 
SMALL
USER_CHARGES
@<TRIPOS>ATOM
1	   N	-6.285	34.595	4.015	N.3	1	SAM4000	0.000	
2	  CA	-6.301	33.441	3.058	C.3	1	SAM4000	0.000	
3	   C	-6.194	32.143	3.888	C.2	1	SAM4000	0.000	
4	   O	-5.156	31.463	3.939	O.co2	1	SAM4000	0.000	
5	  CB	-5.228	33.632	1.956	C.3	1	SAM4000	0.000	
6	  CG	-5.383	34.808	0.972	C.3	1	SAM4000	0.000	
7	  SD	-3.984	35.999	0.910	S.3	1	SAM4000	0.000	
8	  CE	-4.665	37.665	0.763	C.3	1	SAM4000	0.000	
9	 C5'	-3.292	35.724	-0.724	C.3	1	SAM4000	0.000	
10	 C4'	-2.009	36.541	-0.834	C.3	1	SAM4000	0.000	
11	 O4'	-1.021	35.758	-1.458	O.3	1	SAM4000	0.000	
12	 C3'	-2.195	37.765	-1.716	C.3	1	SAM4000	0.000	
13	 O3'	-1.214	38.729	-1.331	O.3	1	SAM4000	0.000	
14	 C2'	-1.952	37.127	-3.085	C.3	1	SAM4000	0.000	
15	 O2'	-1.708	38.006	-4.155	O.3	1	SAM4000	0.000	
16	 C1'	-0.743	36.254	-2.765	C.3	1	SAM4000	0.000	
17	 OXT	-7.158	31.748	4.566	O.co2	1	SAM4000	0.000	
18	  N1	2.938	33.313	-5.063	N.2	1	SAM4000	0.000	
19	  C2	3.093	34.402	-4.220	C.2	1	SAM4000	0.000	
20	  N3	1.993	35.070	-3.696	N.2	1	SAM4000	0.000	
21	  C4	0.733	34.648	-4.010	C.2	1	SAM4000	0.000	
22	  C5	0.539	33.531	-4.836	C.2	1	SAM4000	0.000	
23	  C6	1.658	32.860	-5.356	C.2	1	SAM4000	0.000	
24	  N6	1.480	31.809	-6.154	N.pl3	1	SAM4000	0.000	
25	  N7	-0.805	33.339	-4.974	N.2	1	SAM4000	0.000	
26	  C8	-1.455	34.298	-4.255	C.2	1	SAM4000	0.000	
27	  N9	-0.517	35.112	-3.662	N.2	1	SAM4000	0.000	
@<TRIPOS>BOND
1 1 2 1
2 2 3 1
3 2 5 1
4 3 4 ar
5 3 17 ar
6 5 6 1
7 6 7 1
8 7 8 1
9 7 9 1
10 9 10 1
11 10 11 1
12 10 12 1
13 11 16 1
14 12 13 1
15 12 14 1
16 14 15 1
17 14 16 1
18 16 27 1
19 18 19 ar
20 18 23 ar
21 19 20 ar
22 20 21 ar
23 21 22 ar
24 21 27 ar
25 22 23 ar
26 22 25 ar
27 23 24 1
28 25 26 ar
29 26 27 ar
@<TRIPOS>SUBSTRUCTURE
1	SAM4000	1	GROUP	1 A	SAM
