@<TRIPOS>MOLECULE
4E47.A
54 57 1 0 0 
SMALL
USER_CHARGES


@<TRIPOS>ATOM
  1 C1     -24.1610    13.5380     8.1120 C.3   1 Q0N   0.4865 
  2 H11    -23.6105    13.5120     9.0524 H     1 Q0N   0.0800 
  3 H12    -24.9407    12.7764     8.1263 H     1 Q0N   0.0800 
  4 N1     -23.2280    13.2660     6.9880 N.4   1 Q0N  -0.9060 
  5 H11    -22.9404    12.2986     7.0273 H     1 Q0N   0.4500 
  6 H12    -22.4181    13.8621     7.0824 H     1 Q0N   0.4500 
  7 O1     -26.5170    19.7730     8.9120 O.2   1 Q0N  -0.6500 
  8 S1     -26.8430    18.9970     7.6660 S.o2  1 Q0N   1.4470 
  9 C2     -23.8650    13.5250     5.6780 C.3   1 Q0N   0.3430 
 10 H21    -24.8369    13.0328     5.6427 H     1 Q0N   0.0800 
 11 H22    -23.2310    13.1346     4.8819 H     1 Q0N   0.0800 
 12 N2     -28.5060    18.8300     7.5250 N.am  1 Q0N  -0.9137 
 13 H2     -28.9523    18.9104     6.6225 H     1 Q0N   0.4200 
 14 O2     -30.1480    20.8010     8.4040 O.2   1 Q0N  -0.5700 
 15 C3     -24.0500    15.0390     5.4900 C.3   1 Q0N  -0.0165 
 16 H31    -24.6584    15.2240     4.6047 H     1 Q0N   0.0800 
 17 H32    -23.0758    15.5120     5.3667 H     1 Q0N   0.0800 
 18 N3     -30.5190    19.9480    10.4220 N.pl3 1 Q0N   0.2942 
 19 O3     -26.3550    19.7280     6.4430 O.2   1 Q0N  -0.6500 
 20 C4     -24.8030    14.9180     7.9380 C.ar  1 Q0N  -0.1435 
 21 N4     -27.2700    13.7840     4.8240 N.1   1 Q0N  -0.5571 
 22 C5     -24.7550    15.6270     6.7320 C.ar  1 Q0N  -0.1435 
 23 C6     -25.4770    15.4560     9.0250 C.ar  1 Q0N  -0.1500 
 24 H6     -25.5735    14.8823     9.9349 H     1 Q0N   0.1500 
 25 C7     -26.0270    16.7260     8.9490 C.ar  1 Q0N  -0.1500 
 26 H7     -26.4486    17.1823     9.8324 H     1 Q0N   0.1500 
 27 C8     -26.0390    17.4170     7.7400 C.ar  1 Q0N  -0.0090 
 28 C9     -25.3650    16.8850     6.6410 C.ar  1 Q0N  -0.1500 
 29 H9     -25.3132    17.4437     5.7182 H     1 Q0N   0.1500 
 30 C10    -29.3110    18.5640     8.7350 C.3   1 Q0N   0.3367 
 31 H10    -28.6786    18.2321     9.5584 H     1 Q0N   0.0800 
 32 C11    -30.3470    17.4900     8.3470 C.3   1 Q0N  -0.0165 
 33 H111   -30.7780    17.7337     7.3759 H     1 Q0N   0.0800 
 34 H112   -31.1369    17.4580     9.0974 H     1 Q0N   0.0800 
 35 C12    -30.0410    19.8450     9.1780 C.2   1 Q0N   0.5180 
 36 C13    -31.2210    21.1340    10.9480 C.2   1 Q0N  -0.3016 
 37 H13    -31.4648    22.0377    10.4092 H     1 Q0N   0.1500 
 38 C14    -31.5360    20.8190    12.4270 C.2   1 Q0N  -0.1500 
 39 H14    -32.1510    21.4004    13.0979 H     1 Q0N   0.1500 
 40 C15    -30.7990    19.5140    12.7500 C.2   1 Q0N  -0.1500 
 41 H15    -30.5700    19.1301    13.7331 H     1 Q0N   0.1500 
 42 C16    -30.4530    18.8650    11.4210 C.2   1 Q0N  -0.3016 
 43 H16    -30.2096    17.8277    11.2445 H     1 Q0N   0.1500 
 44 C17    -29.6530    16.1180     8.2720 C.ar  1 Q0N  -0.1435 
 45 C18    -29.5890    15.2860     9.3960 C.ar  1 Q0N  -0.1500 
 46 H18    -30.0725    15.5879    10.3133 H     1 Q0N   0.1500 
 47 C19    -28.9050    14.0680     9.3420 C.ar  1 Q0N  -0.1500 
 48 H19    -28.8281    13.4468    10.2221 H     1 Q0N   0.1500 
 49 C20    -28.3240    13.6630     8.1440 C.ar  1 Q0N  -0.1500 
 50 H20    -27.8323    12.7036     8.0792 H     1 Q0N   0.1500 
 51 C21    -28.3770    14.4960     7.0280 C.ar  1 Q0N   0.0730 
 52 C22    -29.0120    15.7380     7.1000 C.ar  1 Q0N  -0.1500 
 53 H22    -29.0046    16.4006     6.2472 H     1 Q0N   0.1500 
 54 C23    -27.7620    14.0930     5.8020 C.1   1 Q0N   0.4841 
@<TRIPOS>BOND
  1   1   2  1   
  2   1   3  1   
  3   1   4  1   
  4   1  20  1   
  5   4   5  1   
  6   4   6  1   
  7   4   9  1   
  8   7   8  2   
  9   8  12  am  
 10   8  19  2   
 11   8  27  1   
 12   9  10  1   
 13   9  11  1   
 14   9  15  1   
 15  12  13  1   
 16  12  30  1   
 17  14  35  2   
 18  15  16  1   
 19  15  17  1   
 20  15  22  1   
 21  18  35  1   
 22  18  36  1   
 23  18  42  1   
 24  20  22  ar  
 25  20  23  ar  
 26  21  54  3   
 27  22  28  ar  
 28  23  24  1   
 29  23  25  ar  
 30  25  26  1   
 31  25  27  ar  
 32  27  28  ar  
 33  28  29  1   
 34  30  31  1   
 35  30  32  1   
 36  30  35  1   
 37  32  33  1   
 38  32  34  1   
 39  32  44  1   
 40  36  37  1   
 41  36  38  2   
 42  38  39  1   
 43  38  40  1   
 44  40  41  1   
 45  40  42  2   
 46  42  43  1   
 47  44  45  ar  
 48  44  52  ar  
 49  45  46  1   
 50  45  47  ar  
 51  47  48  1   
 52  47  49  ar  
 53  49  50  1   
 54  49  51  ar  
 55  51  52  ar  
 56  51  54  1   
 57  52  53  1   
@<TRIPOS>SUBSTRUCTURE
  1 Q0N  25 GROUP 4 A **** 0

# MOE 2022.02 (io_trps.svl 2020.11)
