# created with PyMOL 2.5.0
@<TRIPOS>MOLECULE
4E47
31 34 1                 
SMALL
USER_CHARGES
@<TRIPOS>ATOM
1	  C1	-24.161	13.538	8.112	C.3	1	0N6402	0.000	
2	  N1	-23.228	13.266	6.988	N.3	1	0N6402	0.000	
3	  O1	-26.517	19.773	8.912	O.2	1	0N6402	0.000	
4	  S1	-26.843	18.997	7.666	S.o2	1	0N6402	0.000	
5	  C2	-23.865	13.525	5.678	C.3	1	0N6402	0.000	
6	  N2	-28.506	18.830	7.525	N.3	1	0N6402	0.000	
7	  O2	-30.148	20.801	8.404	O.2	1	0N6402	0.000	
8	  C3	-24.050	15.039	5.490	C.3	1	0N6402	0.000	
9	  N3	-30.519	19.948	10.422	N.2	1	0N6402	0.000	
10	  O3	-26.355	19.728	6.443	O.2	1	0N6402	0.000	
11	  C4	-24.803	14.918	7.938	C.2	1	0N6402	0.000	
12	  N4	-27.270	13.784	4.824	N.1	1	0N6402	0.000	
13	  C5	-24.755	15.627	6.732	C.2	1	0N6402	0.000	
14	  C6	-25.477	15.456	9.025	C.2	1	0N6402	0.000	
15	  C7	-26.027	16.726	8.949	C.2	1	0N6402	0.000	
16	  C8	-26.039	17.417	7.740	C.2	1	0N6402	0.000	
17	  C9	-25.365	16.885	6.641	C.2	1	0N6402	0.000	
18	 C10	-29.311	18.564	8.735	C.3	1	0N6402	0.000	
19	 C11	-30.347	17.490	8.347	C.3	1	0N6402	0.000	
20	 C12	-30.041	19.845	9.178	C.2	1	0N6402	0.000	
21	 C13	-31.221	21.134	10.948	C.2	1	0N6402	0.000	
22	 C14	-31.536	20.819	12.427	C.2	1	0N6402	0.000	
23	 C15	-30.799	19.514	12.750	C.2	1	0N6402	0.000	
24	 C16	-30.453	18.865	11.421	C.2	1	0N6402	0.000	
25	 C17	-29.653	16.118	8.272	C.2	1	0N6402	0.000	
26	 C18	-29.589	15.286	9.396	C.2	1	0N6402	0.000	
27	 C19	-28.905	14.068	9.342	C.2	1	0N6402	0.000	
28	 C20	-28.324	13.663	8.144	C.2	1	0N6402	0.000	
29	 C21	-28.377	14.496	7.028	C.2	1	0N6402	0.000	
30	 C22	-29.012	15.738	7.100	C.2	1	0N6402	0.000	
31	 C23	-27.762	14.093	5.802	C.1	1	0N6402	0.000	
@<TRIPOS>BOND
1 1 2 1
2 1 11 1
3 2 5 1
4 3 4 2
5 4 6 1
6 4 10 2
7 4 16 1
8 5 8 1
9 6 18 1
10 7 20 2
11 8 13 1
12 9 20 1
13 9 21 ar
14 9 24 ar
15 11 13 ar
16 11 14 ar
17 12 31 3
18 13 17 ar
19 14 15 ar
20 15 16 ar
21 16 17 ar
22 18 19 1
23 18 20 1
24 19 25 1
25 21 22 ar
26 22 23 ar
27 23 24 ar
28 25 26 ar
29 25 30 ar
30 26 27 ar
31 27 28 ar
32 28 29 ar
33 29 30 ar
34 29 31 1
@<TRIPOS>SUBSTRUCTURE
1	0N6402	1	GROUP	1 A	0N6
