# created with PyMOL 2.5.2
@<TRIPOS>MOLECULE
4E47.A
54 57 1                 
SMALL
USER_CHARGES
@<TRIPOS>ATOM
1	  C1	-24.161	13.538	8.112	C.3	1	0N60N	0.486	
2	 H11	-23.611	13.512	9.052	 H	1	0N60N	0.080	
3	 H12	-24.941	12.776	8.126	 H	1	0N60N	0.080	
4	  N1	-23.228	13.266	6.988	N.4	1	0N60N	-0.906	
5	 H11	-22.940	12.299	7.027	 H	1	0N60N	0.450	
6	 H12	-22.418	13.862	7.082	 H	1	0N60N	0.450	
7	  O1	-26.517	19.773	8.912	O.2	1	0N60N	-0.650	
8	  S1	-26.843	18.997	7.666	S.O2	1	0N60N	1.447	
9	  C2	-23.865	13.525	5.678	C.3	1	0N60N	0.343	
10	 H21	-24.837	13.033	5.643	 H	1	0N60N	0.080	
11	 H22	-23.231	13.135	4.882	 H	1	0N60N	0.080	
12	  N2	-28.506	18.830	7.525	N.3	1	0N60N	-0.914	
13	  H2	-28.952	18.910	6.622	 H	1	0N60N	0.420	
14	  O2	-30.148	20.801	8.404	O.2	1	0N60N	-0.570	
15	  C3	-24.050	15.039	5.490	C.3	1	0N60N	-0.016	
16	 H31	-24.658	15.224	4.605	 H	1	0N60N	0.080	
17	 H32	-23.076	15.512	5.367	 H	1	0N60N	0.080	
18	  N3	-30.519	19.948	10.422	N.pl3	1	0N60N	0.294	
19	  O3	-26.355	19.728	6.443	O.2	1	0N60N	-0.650	
20	  C4	-24.803	14.918	7.938	C.2	1	0N60N	-0.144	
21	  N4	-27.270	13.784	4.824	N.1	1	0N60N	-0.557	
22	  C5	-24.755	15.627	6.732	C.2	1	0N60N	-0.144	
23	  C6	-25.477	15.456	9.025	C.2	1	0N60N	-0.150	
24	  H6	-25.573	14.882	9.935	 H	1	0N60N	0.150	
25	  C7	-26.027	16.726	8.949	C.2	1	0N60N	-0.150	
26	  H7	-26.449	17.182	9.832	 H	1	0N60N	0.150	
27	  C8	-26.039	17.417	7.740	C.2	1	0N60N	-0.009	
28	  C9	-25.365	16.885	6.641	C.2	1	0N60N	-0.150	
29	  H9	-25.313	17.444	5.718	 H	1	0N60N	0.150	
30	 C10	-29.311	18.564	8.735	C.3	1	0N60N	0.337	
31	 H10	-28.679	18.232	9.558	 H	1	0N60N	0.080	
32	 C11	-30.347	17.490	8.347	C.3	1	0N60N	-0.016	
33	H111	-30.778	17.734	7.376	 H	1	0N60N	0.080	
34	H112	-31.137	17.458	9.097	 H	1	0N60N	0.080	
35	 C12	-30.041	19.845	9.178	C.2	1	0N60N	0.518	
36	 C13	-31.221	21.134	10.948	C.2	1	0N60N	-0.302	
37	 H13	-31.465	22.038	10.409	 H	1	0N60N	0.150	
38	 C14	-31.536	20.819	12.427	C.2	1	0N60N	-0.150	
39	 H14	-32.151	21.400	13.098	 H	1	0N60N	0.150	
40	 C15	-30.799	19.514	12.750	C.2	1	0N60N	-0.150	
41	 H15	-30.570	19.130	13.733	 H	1	0N60N	0.150	
42	 C16	-30.453	18.865	11.421	C.2	1	0N60N	-0.302	
43	 H16	-30.210	17.828	11.245	 H	1	0N60N	0.150	
44	 C17	-29.653	16.118	8.272	C.2	1	0N60N	-0.144	
45	 C18	-29.589	15.286	9.396	C.2	1	0N60N	-0.150	
46	 H18	-30.073	15.588	10.313	 H	1	0N60N	0.150	
47	 C19	-28.905	14.068	9.342	C.2	1	0N60N	-0.150	
48	 H19	-28.828	13.447	10.222	 H	1	0N60N	0.150	
49	 C20	-28.324	13.663	8.144	C.2	1	0N60N	-0.150	
50	 H20	-27.832	12.704	8.079	 H	1	0N60N	0.150	
51	 C21	-28.377	14.496	7.028	C.2	1	0N60N	0.073	
52	 C22	-29.012	15.738	7.100	C.2	1	0N60N	-0.150	
53	 H22	-29.005	16.401	6.247	 H	1	0N60N	0.150	
54	 C23	-27.762	14.093	5.802	C.1	1	0N60N	0.484	
@<TRIPOS>BOND
1 1 2 1
2 1 3 1
3 1 4 1
4 1 20 1
5 4 5 1
6 4 6 1
7 4 9 1
8 7 8 2
9 8 12 1
10 8 19 2
11 8 27 1
12 9 10 1
13 9 11 1
14 9 15 1
15 12 13 1
16 12 30 1
17 14 35 2
18 15 16 1
19 15 17 1
20 15 22 1
21 18 35 1
22 18 36 1
23 18 42 1
24 20 22 ar
25 20 23 ar
26 21 54 3
27 22 28 ar
28 23 24 1
29 23 25 ar
30 25 26 1
31 25 27 ar
32 27 28 ar
33 28 29 1
34 30 31 1
35 30 32 1
36 30 35 1
37 32 33 1
38 32 34 1
39 32 44 1
40 36 37 1
41 36 38 2
42 38 39 1
43 38 40 1
44 40 41 1
45 40 42 2
46 42 43 1
47 44 45 ar
48 44 52 ar
49 45 46 1
50 45 47 ar
51 47 48 1
52 47 49 ar
53 49 50 1
54 49 51 ar
55 51 52 ar
56 51 54 1
57 52 53 1
@<TRIPOS>SUBSTRUCTURE
1	0N60N	1	GROUP	1 A	0N6
