# created with PyMOL 2.4.0
@<TRIPOS>MOLECULE
temp
50 52 1                 
SMALL
USER_CHARGES
@<TRIPOS>ATOM
1	   N	-39.418	20.154	17.010	N.4	1	SAM1	0.000	
2	  CA	-38.191	19.763	17.664	C.3	1	SAM1	0.000	
3	   C	-38.411	19.589	19.160	C.2	1	SAM1	0.000	
4	   O	-37.440	19.449	19.969	O.co2	1	SAM1	0.000	
5	  CB	-37.247	20.995	17.433	C.3	1	SAM1	0.000	
6	  CG	-36.441	20.999	16.073	C.3	1	SAM1	0.000	
7	  SD	-35.365	19.494	16.071	S.3	1	SAM1	0.000	
8	  CE	-33.834	20.291	15.391	C.3	1	SAM1	0.000	
9	 C5'	-35.799	18.592	14.568	C.3	1	SAM1	0.000	
10	 C4'	-37.070	17.788	14.722	C.3	1	SAM1	0.000	
11	 O4'	-38.251	18.655	14.667	O.3	1	SAM1	0.000	
12	 C3'	-37.294	16.856	13.486	C.3	1	SAM1	0.000	
13	 O3'	-36.662	15.590	13.721	O.3	1	SAM1	0.000	
14	 C2'	-38.816	16.690	13.431	C.3	1	SAM1	0.000	
15	 O2'	-39.191	15.793	14.471	O.3	1	SAM1	0.000	
16	 C1'	-39.305	18.085	13.908	C.3	1	SAM1	0.000	
17	 OXT	-39.557	19.571	19.584	O.co2	1	SAM1	0.000	
18	  N1	-42.714	19.552	10.272	N.2	1	SAM1	0.000	
19	  C2	-42.751	18.495	11.091	C.2	1	SAM1	0.000	
20	  N3	-41.815	18.239	11.999	N.2	1	SAM1	0.000	
21	  C4	-40.716	19.051	12.045	C.2	1	SAM1	0.000	
22	  C5	-40.583	20.185	11.161	C.2	1	SAM1	0.000	
23	  C6	-41.617	20.442	10.246	C.2	1	SAM1	0.000	
24	  N6	-41.517	21.570	9.356	N.pl3	1	SAM1	0.000	
25	  N7	-39.381	20.781	11.416	N.2	1	SAM1	0.000	
26	  C8	-38.777	20.120	12.389	C.2	1	SAM1	0.000	
27	  N9	-39.569	19.050	12.818	N.2	1	SAM1	0.000	
28	  HA	-37.798	18.821	17.281	 H	1	SAM1	0.000	
29	 HB1	-36.525	21.021	18.250	 H	1	SAM1	0.000	
30	 HB2	-37.860	21.896	17.461	 H	1	SAM1	0.000	
31	 HG1	-35.827	21.897	16.005	 H	1	SAM1	0.000	
32	 HG2	-37.131	20.966	15.230	 H	1	SAM1	0.000	
33	 HE1	-33.378	20.916	16.159	 H	1	SAM1	0.000	
34	 HE2	-34.096	20.907	14.531	 H	1	SAM1	0.000	
35	 HE3	-33.128	19.519	15.084	 H	1	SAM1	0.000	
36	  H1	-39.742	21.029	17.397	 H	1	SAM1	0.000	
37	  H2	-40.119	19.441	17.156	 H	1	SAM1	0.000	
38	  H2	-43.585	17.814	11.010	 H	1	SAM1	0.000	
39	  H3	-39.251	20.265	16.020	 H	1	SAM1	0.000	
40	  H8	-37.808	20.371	12.795	 H	1	SAM1	0.000	
41	 H1'	-40.238	17.920	14.447	 H	1	SAM1	0.000	
42	 H2'	-39.190	16.351	12.465	 H	1	SAM1	0.000	
43	 H2'	-38.815	14.934	14.264	 H	1	SAM1	0.000	
44	 H3'	-36.881	17.255	12.560	 H	1	SAM1	0.000	
45	 H3'	-36.863	15.022	12.974	 H	1	SAM1	0.000	
46	 H4'	-36.960	17.253	15.665	 H	1	SAM1	0.000	
47	 H61	-40.706	22.171	9.392	 H	1	SAM1	0.000	
48	 H62	-42.258	21.760	8.696	 H	1	SAM1	0.000	
49	H5'1	-34.983	17.913	14.320	 H	1	SAM1	0.000	
50	H5'2	-35.934	19.308	13.757	 H	1	SAM1	0.000	
@<TRIPOS>BOND
1 1 2 1
2 1 36 1
3 1 37 1
4 1 39 1
5 2 3 1
6 2 5 1
7 2 28 1
8 3 4 ar
9 3 17 ar
10 5 6 1
11 5 29 1
12 5 30 1
13 6 7 1
14 6 31 1
15 6 32 1
16 7 8 1
17 7 9 1
18 8 33 1
19 8 34 1
20 8 35 1
21 9 10 1
22 9 49 1
23 9 50 1
24 10 11 1
25 10 12 1
26 10 46 1
27 11 16 1
28 12 13 1
29 12 14 1
30 12 44 1
31 13 45 1
32 14 15 1
33 14 16 1
34 14 42 1
35 15 43 1
36 16 27 1
37 16 41 1
38 18 19 ar
39 18 23 ar
40 19 20 ar
41 19 38 1
42 20 21 ar
43 21 22 ar
44 21 27 ar
45 22 23 ar
46 22 25 ar
47 23 24 1
48 24 47 1
49 24 48 1
50 25 26 ar
51 26 27 ar
52 26 40 1
@<TRIPOS>SUBSTRUCTURE
1	SAM1	1	GROUP	1 A	SAM
