@<TRIPOS>MOLECULE
4E47.A
51 53 1 0 0 
SMALL
USER_CHARGES


@<TRIPOS>ATOM
  1 N      -39.4180    20.1540    17.0100 N.4   1 SAM  -0.8530 
  2 H1     -39.7418    21.0289    17.3970 H     1 SAM   0.4500 
  3 H2     -40.1189    19.4415    17.1556 H     1 SAM   0.4500 
  4 H3     -39.2513    20.2650    16.0201 H     1 SAM   0.4500 
  5 CA     -38.1910    19.7630    17.6640 C.3   1 SAM   0.3170 
  6 HA     -37.7984    18.8211    17.2810 H     1 SAM   0.0800 
  7 C      -38.4110    19.5890    19.1600 C.2   1 SAM   0.9060 
  8 O      -37.4400    19.4490    19.9690 O.co2 1 SAM  -0.9000 
  9 CB     -37.2470    20.9950    17.4330 C.3   1 SAM  -0.1600 
 10 HB1    -36.5253    21.0210    18.2495 H     1 SAM   0.0800 
 11 HB2    -37.8600    21.8959    17.4611 H     1 SAM   0.0800 
 12 CG     -36.4410    20.9990    16.0730 C.3   1 SAM  -0.1525 
 13 HG1    -35.8271    21.8972    16.0052 H     1 SAM   0.0800 
 14 HG2    -37.1309    20.9660    15.2298 H     1 SAM   0.0800 
 15 SD     -35.3650    19.4940    16.0710 S.3   1 SAM   0.9775 
 16 CE     -33.8340    20.2910    15.3910 C.3   1 SAM  -0.2325 
 17 HE1    -33.3777    20.9155    16.1591 H     1 SAM   0.0800 
 18 HE2    -34.0964    20.9066    14.5306 H     1 SAM   0.0800 
 19 HE3    -33.1284    19.5191    15.0838 H     1 SAM   0.0800 
 20 C5'    -35.7990    18.5920    14.5680 C.3   1 SAM  -0.1525 
 21 H5'1   -34.9834    17.9126    14.3202 H     1 SAM   0.0800 
 22 H5'2   -35.9343    19.3080    13.7574 H     1 SAM   0.0800 
 23 C4'    -37.0700    17.7880    14.7220 C.3   1 SAM   0.2000 
 24 H4'    -36.9604    17.2529    15.6653 H     1 SAM   0.0800 
 25 O4'    -38.2510    18.6550    14.6670 O.3   1 SAM  -0.5600 
 26 C3'    -37.2940    16.8560    13.4860 C.3   1 SAM   0.2000 
 27 H3'    -36.8807    17.2547    12.5596 H     1 SAM   0.0800 
 28 O3'    -36.6620    15.5900    13.7210 O.3   1 SAM  -0.6800 
 29 H3'    -36.8628    15.0221    12.9735 H     1 SAM   0.4000 
 30 C2'    -38.8160    16.6900    13.4310 C.3   1 SAM   0.2000 
 31 H2'    -39.1898    16.3512    12.4648 H     1 SAM   0.0800 
 32 O2'    -39.1910    15.7930    14.4710 O.3   1 SAM  -0.6800 
 33 H2'    -38.8148    14.9345    14.2636 H     1 SAM   0.4000 
 34 C1'    -39.3050    18.0850    13.9080 C.3   1 SAM   0.5691 
 35 H1'    -40.2376    17.9196    14.4474 H     1 SAM   0.0800 
 36 OXT    -39.5570    19.5710    19.5840 O.co2 1 SAM  -0.9000 
 37 N1     -42.7140    19.5520    10.2720 N.2   1 SAM  -0.6610 
 38 C2     -42.7510    18.4950    11.0910 C.2   1 SAM   0.6010 
 39 H2     -43.5853    17.8139    11.0101 H     1 SAM   0.0600 
 40 N3     -41.8150    18.2390    11.9990 N.2   1 SAM  -0.6610 
 41 C4     -40.7160    19.0510    12.0450 C.2   1 SAM   0.5000 
 42 C5     -40.5830    20.1850    11.1610 C.2   1 SAM   0.4500 
 43 C6     -41.6170    20.4420    10.2460 C.2   1 SAM   0.6110 
 44 N6     -41.5170    21.5700     9.3560 N.2   1 SAM  -0.2000 
 45 H62    -42.2576    21.7597     8.6959 H     1 SAM   0.4000 
 46 H61    -40.7063    22.1713     9.3920 H     1 SAM   0.4000 
 47 N7     -39.3810    20.7810    11.4160 N.2   1 SAM  -0.6960 
 48 C8     -38.7770    20.1200    12.3890 C.3   1 SAM   0.4551 
 49 H81    -38.6016    20.7952    13.2266 H     1 SAM   0.0800 
 50 H82    -37.8235    19.7374    12.0249 H     1 SAM   0.0800 
 51 N9     -39.5690    19.0500    12.8180 N.pl3 1 SAM  -0.7882 
@<TRIPOS>BOND
  1   1   2  1   
  2   1   3  1   
  3   1   4  1   
  4   1   5  1   
  5   5   6  1   
  6   5   7  1   
  7   5   9  1   
  8   7   8  ar  
  9   7  36  ar  
 10   9  10  1   
 11   9  11  1   
 12   9  12  1   
 13  12  13  1   
 14  12  14  1   
 15  12  15  1   
 16  15  16  1   
 17  15  20  1   
 18  16  17  1   
 19  16  18  1   
 20  16  19  1   
 21  20  21  1   
 22  20  22  1   
 23  20  23  1   
 24  23  24  1   
 25  23  25  1   
 26  23  26  1   
 27  25  34  1   
 28  26  27  1   
 29  26  28  1   
 30  26  30  1   
 31  28  29  1   
 32  30  31  1   
 33  30  32  1   
 34  30  34  1   
 35  32  33  1   
 36  34  35  1   
 37  34  51  1   
 38  37  38  2   
 39  37  43  1   
 40  38  39  1   
 41  38  40  1   
 42  40  41  2   
 43  41  42  1   
 44  41  51  1   
 45  42  43  1   
 46  42  47  2   
 47  43  44  2   
 48  44  45  1   
 49  44  46  1   
 50  47  48  1   
 51  48  49  1   
 52  48  50  1   
 53  48  51  1   
@<TRIPOS>SUBSTRUCTURE
  1 SAM  25 GROUP 4 A **** 0

# MOE 2022.02 (io_trps.svl 2020.11)
