# created with PyMOL 2.5.0
@<TRIPOS>MOLECULE
4E47
27 29 1                 
SMALL
USER_CHARGES
@<TRIPOS>ATOM
1	   N	-39.418	20.154	17.010	N.3	1	SAM401	0.000	
2	  CA	-38.191	19.763	17.664	C.3	1	SAM401	0.000	
3	   C	-38.411	19.589	19.160	C.2	1	SAM401	0.000	
4	   O	-37.440	19.449	19.969	O.co2	1	SAM401	0.000	
5	  CB	-37.247	20.995	17.433	C.3	1	SAM401	0.000	
6	  CG	-36.441	20.999	16.073	C.3	1	SAM401	0.000	
7	  SD	-35.365	19.494	16.071	S.3	1	SAM401	0.000	
8	  CE	-33.834	20.291	15.391	C.3	1	SAM401	0.000	
9	 C5'	-35.799	18.592	14.568	C.3	1	SAM401	0.000	
10	 C4'	-37.070	17.788	14.722	C.3	1	SAM401	0.000	
11	 O4'	-38.251	18.655	14.667	O.3	1	SAM401	0.000	
12	 C3'	-37.294	16.856	13.486	C.3	1	SAM401	0.000	
13	 O3'	-36.662	15.590	13.721	O.3	1	SAM401	0.000	
14	 C2'	-38.816	16.690	13.431	C.3	1	SAM401	0.000	
15	 O2'	-39.191	15.793	14.471	O.3	1	SAM401	0.000	
16	 C1'	-39.305	18.085	13.908	C.3	1	SAM401	0.000	
17	 OXT	-39.557	19.571	19.584	O.co2	1	SAM401	0.000	
18	  N1	-42.714	19.552	10.272	N.2	1	SAM401	0.000	
19	  C2	-42.751	18.495	11.091	C.2	1	SAM401	0.000	
20	  N3	-41.815	18.239	11.999	N.2	1	SAM401	0.000	
21	  C4	-40.716	19.051	12.045	C.2	1	SAM401	0.000	
22	  C5	-40.583	20.185	11.161	C.2	1	SAM401	0.000	
23	  C6	-41.617	20.442	10.246	C.2	1	SAM401	0.000	
24	  N6	-41.517	21.570	9.356	N.pl3	1	SAM401	0.000	
25	  N7	-39.381	20.781	11.416	N.2	1	SAM401	0.000	
26	  C8	-38.777	20.120	12.389	C.2	1	SAM401	0.000	
27	  N9	-39.569	19.050	12.818	N.2	1	SAM401	0.000	
@<TRIPOS>BOND
1 1 2 1
2 2 3 1
3 2 5 1
4 3 4 ar
5 3 17 ar
6 5 6 1
7 6 7 1
8 7 8 1
9 7 9 1
10 9 10 1
11 10 11 1
12 10 12 1
13 11 16 1
14 12 13 1
15 12 14 1
16 14 15 1
17 14 16 1
18 16 27 1
19 18 19 ar
20 18 23 ar
21 19 20 ar
22 20 21 ar
23 21 22 ar
24 21 27 ar
25 22 23 ar
26 22 25 ar
27 23 24 1
28 25 26 ar
29 26 27 ar
@<TRIPOS>SUBSTRUCTURE
1	SAM401	1	GROUP	1 A	SAM
