@<TRIPOS>MOLECULE
1VID.A
17 17 1 0 0 
SMALL
USER_CHARGES


@<TRIPOS>ATOM
  1 C1     -25.0370    61.8400    50.4500 C.ar  1 DNC   0.0825 
  2 N1     -22.7910    58.7990    49.4300 N.pl3 1 DNC   0.9070 
  3 O1     -25.1650    63.1630    50.3020 O.3   1 DNC  -0.5325 
  4 H1     -24.4690    63.5834    49.7916 H     1 DNC   0.4500 
  5 C2     -23.9370    61.1190    49.8560 C.ar  1 DNC  -0.1710 
  6 N2     -27.0120    59.1030    52.1100 N.pl3 1 DNC   0.9070 
  7 O2     -23.0120    61.8390    49.1860 O.3   1 DNC  -0.8290 
  8 C3     -23.8600    59.6760    50.0210 C.ar  1 DNC   0.1330 
  9 O3     -21.8670    59.2100    48.7460 O.2   1 DNC  -0.5200 
 10 C4     -24.8960    59.0440    50.7760 C.ar  1 DNC  -0.1500 
 11 H4     -24.8665    57.9733    50.9147 H     1 DNC   0.1500 
 12 O4     -22.8460    57.5860    49.6470 O.2   1 DNC  -0.5200 
 13 C5     -25.9710    59.7910    51.3530 C.ar  1 DNC   0.1330 
 14 O5     -26.9440    57.9230    52.2630 O.2   1 DNC  -0.5200 
 15 C6     -26.0440    61.1880    51.1960 C.ar  1 DNC  -0.1500 
 16 H6     -26.8538    61.7502    51.6371 H     1 DNC   0.1500 
 17 O6     -27.9120    59.7170    52.5960 O.2   1 DNC  -0.5200 
@<TRIPOS>BOND
  1   1   3  1   
  2   1   5  ar  
  3   1  15  ar  
  4   2   8  1   
  5   2   9  2   
  6   2  12  2   
  7   3   4  1   
  8   5   7  1   
  9   5   8  ar  
 10   6  13  1   
 11   6  14  2   
 12   6  17  2   
 13   8  10  ar  
 14  10  11  1   
 15  10  13  ar  
 16  13  15  ar  
 17  15  16  1   
@<TRIPOS>SUBSTRUCTURE
  1 DNC  10 GROUP 4 A **** 0

# MOE 2022.02 (io_trps.svl 2020.11)
