# created with PyMOL 2.4.0
@<TRIPOS>MOLECULE
for_leap
16 16 1                 
SMALL
USER_CHARGES
@<TRIPOS>ATOM
1	  C1	-25.037	61.840	50.450	C.2	1	DNC1	0.000	
2	  N1	-22.791	58.799	49.430	N.2	1	DNC1	0.000	
3	  O1	-25.165	63.163	50.302	O.3	1	DNC1	0.000	
4	  C2	-23.937	61.119	49.856	C.2	1	DNC1	0.000	
5	  N2	-27.012	59.103	52.110	N.2	1	DNC1	0.000	
6	  O2	-23.012	61.839	49.186	O.2	1	DNC1	0.000	
7	  C3	-23.860	59.676	50.021	C.2	1	DNC1	0.000	
8	  O3	-21.867	59.210	48.746	O.2	1	DNC1	0.000	
9	  C4	-24.896	59.044	50.776	C.2	1	DNC1	0.000	
10	  O4	-22.846	57.586	49.647	O.2	1	DNC1	0.000	
11	  C5	-25.971	59.791	51.353	C.2	1	DNC1	0.000	
12	  O5	-26.944	57.923	52.263	O.2	1	DNC1	0.000	
13	  C6	-26.044	61.188	51.196	C.2	1	DNC1	0.000	
14	  O6	-27.912	59.717	52.596	O.2	1	DNC1	0.000	
15	  H4	-24.867	57.973	50.915	 H	1	DNC1	0.000	
16	  H6	-26.854	61.750	51.637	 H	1	DNC1	0.000	
@<TRIPOS>BOND
1 1 3 1
2 1 4 ar
3 1 13 ar
4 2 7 1
5 2 8 ar
6 2 10 ar
7 4 6 1
8 4 7 ar
9 5 11 1
10 5 12 ar
11 5 14 ar
12 7 9 ar
13 9 11 ar
14 9 15 1
15 11 13 ar
16 13 16 1
@<TRIPOS>SUBSTRUCTURE
1	DNC1	1	GROUP	1 A	DNC
