# created with PyMOL 2.4.0
@<TRIPOS>MOLECULE
temp
50 52 1                 
SMALL
USER_CHARGES
@<TRIPOS>ATOM
1	   N	-21.548	65.546	44.034	N.4	1	SAM1	0.000	
2	  CA	-22.585	64.834	43.465	C.3	1	SAM1	0.000	
3	   C	-23.769	65.716	43.390	C.2	1	SAM1	0.000	
4	   O	-24.093	66.484	44.313	O.co2	1	SAM1	0.000	
5	  CB	-22.597	63.629	44.254	C.3	1	SAM1	0.000	
6	  CG	-21.999	62.311	44.054	C.3	1	SAM1	0.000	
7	  SD	-22.494	60.825	44.965	S.3	1	SAM1	0.000	
8	  CE	-22.624	61.328	46.635	C.3	1	SAM1	0.000	
9	 C5'	-20.799	60.370	44.563	C.3	1	SAM1	0.000	
10	 C4'	-20.098	59.461	43.603	C.3	1	SAM1	0.000	
11	 O4'	-18.777	59.211	43.652	O.3	1	SAM1	0.000	
12	 C3'	-20.934	58.424	42.857	C.3	1	SAM1	0.000	
13	 O3'	-21.393	58.816	41.604	O.3	1	SAM1	0.000	
14	 C2'	-19.851	57.225	42.935	C.3	1	SAM1	0.000	
15	 O2'	-19.708	56.335	41.847	O.3	1	SAM1	0.000	
16	 C1'	-18.561	57.995	43.152	C.3	1	SAM1	0.000	
17	 OXT	-24.414	65.689	42.366	O.co2	1	SAM1	0.000	
18	  N1	-13.302	58.218	42.904	N.2	1	SAM1	0.000	
19	  C2	-14.259	58.741	42.097	C.2	1	SAM1	0.000	
20	  N3	-15.595	58.635	42.134	N.2	1	SAM1	0.000	
21	  C4	-16.068	58.016	43.240	C.2	1	SAM1	0.000	
22	  C5	-15.170	57.324	44.117	C.2	1	SAM1	0.000	
23	  C6	-13.754	57.465	43.904	C.2	1	SAM1	0.000	
24	  N6	-12.823	56.863	44.664	N.pl3	1	SAM1	0.000	
25	  N7	-15.785	56.739	45.114	N.2	1	SAM1	0.000	
26	  C8	-17.007	57.103	44.816	C.2	1	SAM1	0.000	
27	  N9	-17.269	57.906	43.785	N.2	1	SAM1	0.000	
28	  HA	-22.518	64.518	42.424	 H	1	SAM1	0.000	
29	 HB1	-23.659	63.411	44.367	 H	1	SAM1	0.000	
30	 HB2	-22.188	63.950	45.212	 H	1	SAM1	0.000	
31	 HG1	-20.934	62.437	44.250	 H	1	SAM1	0.000	
32	 HG2	-22.149	62.075	43.000	 H	1	SAM1	0.000	
33	 HE1	-23.657	61.598	46.854	 H	1	SAM1	0.000	
34	 HE2	-21.979	62.190	46.806	 H	1	SAM1	0.000	
35	 HE3	-22.317	60.510	47.286	 H	1	SAM1	0.000	
36	  H1	-21.772	65.756	44.996	 H	1	SAM1	0.000	
37	  H2	-21.411	66.407	43.524	 H	1	SAM1	0.000	
38	  H2	-13.880	59.346	41.286	 H	1	SAM1	0.000	
39	  H3	-20.702	64.995	43.998	 H	1	SAM1	0.000	
40	  H8	-17.825	56.743	45.422	 H	1	SAM1	0.000	
41	 H1'	-18.396	57.504	42.193	 H	1	SAM1	0.000	
42	 H2'	-20.171	56.521	43.703	 H	1	SAM1	0.000	
43	 H2'	-20.563	55.929	41.690	 H	1	SAM1	0.000	
44	 H3'	-21.917	58.180	43.260	 H	1	SAM1	0.000	
45	 H3'	-21.841	58.064	41.211	 H	1	SAM1	0.000	
46	 H4'	-19.982	60.334	42.961	 H	1	SAM1	0.000	
47	 H61	-13.104	56.273	45.434	 H	1	SAM1	0.000	
48	 H62	-11.842	57.000	44.465	 H	1	SAM1	0.000	
49	H5'1	-20.423	60.020	45.524	 H	1	SAM1	0.000	
50	H5'2	-20.353	61.337	44.329	 H	1	SAM1	0.000	
@<TRIPOS>BOND
1 1 2 1
2 1 36 1
3 1 37 1
4 1 39 1
5 2 3 1
6 2 5 1
7 2 28 1
8 3 4 ar
9 3 17 ar
10 5 6 1
11 5 29 1
12 5 30 1
13 6 7 1
14 6 31 1
15 6 32 1
16 7 8 1
17 7 9 1
18 8 33 1
19 8 34 1
20 8 35 1
21 9 10 1
22 9 49 1
23 9 50 1
24 10 11 1
25 10 12 1
26 10 46 1
27 11 16 1
28 12 13 1
29 12 14 1
30 12 44 1
31 13 45 1
32 14 15 1
33 14 16 1
34 14 42 1
35 15 43 1
36 16 27 1
37 16 41 1
38 18 19 ar
39 18 23 ar
40 19 20 ar
41 19 38 1
42 20 21 ar
43 21 22 ar
44 21 27 ar
45 22 23 ar
46 22 25 ar
47 23 24 1
48 24 47 1
49 24 48 1
50 25 26 ar
51 26 27 ar
52 26 40 1
@<TRIPOS>SUBSTRUCTURE
1	SAM1	1	GROUP	1 A	SAM
