# created with PyMOL 2.5.2
@<TRIPOS>MOLECULE
1VID
27 29 1                 
SMALL
USER_CHARGES
@<TRIPOS>ATOM
1	   N	-21.548	65.546	44.034	N.3	1	SAM301	0.000	
2	  CA	-22.585	64.834	43.465	C.3	1	SAM301	0.000	
3	   C	-23.769	65.716	43.390	C.2	1	SAM301	0.000	
4	   O	-24.093	66.484	44.313	O.co2	1	SAM301	0.000	
5	  CB	-22.597	63.629	44.254	C.3	1	SAM301	0.000	
6	  CG	-21.999	62.311	44.054	C.3	1	SAM301	0.000	
7	  SD	-22.494	60.825	44.965	S.3	1	SAM301	0.000	
8	  CE	-22.624	61.328	46.635	C.3	1	SAM301	0.000	
9	 C5'	-20.799	60.370	44.563	C.3	1	SAM301	0.000	
10	 C4'	-20.098	59.461	43.603	C.3	1	SAM301	0.000	
11	 O4'	-18.777	59.211	43.652	O.3	1	SAM301	0.000	
12	 C3'	-20.934	58.424	42.857	C.3	1	SAM301	0.000	
13	 O3'	-21.393	58.816	41.604	O.3	1	SAM301	0.000	
14	 C2'	-19.851	57.225	42.935	C.3	1	SAM301	0.000	
15	 O2'	-19.708	56.335	41.847	O.3	1	SAM301	0.000	
16	 C1'	-18.561	57.995	43.152	C.3	1	SAM301	0.000	
17	 OXT	-24.414	65.689	42.366	O.co2	1	SAM301	0.000	
18	  N1	-13.302	58.218	42.904	N.2	1	SAM301	0.000	
19	  C2	-14.259	58.741	42.097	C.2	1	SAM301	0.000	
20	  N3	-15.595	58.635	42.134	N.2	1	SAM301	0.000	
21	  C4	-16.068	58.016	43.240	C.2	1	SAM301	0.000	
22	  C5	-15.170	57.324	44.117	C.2	1	SAM301	0.000	
23	  C6	-13.754	57.465	43.904	C.2	1	SAM301	0.000	
24	  N6	-12.823	56.863	44.664	N.pl3	1	SAM301	0.000	
25	  N7	-15.785	56.739	45.114	N.2	1	SAM301	0.000	
26	  C8	-17.007	57.103	44.816	C.2	1	SAM301	0.000	
27	  N9	-17.269	57.906	43.785	N.pl3	1	SAM301	0.000	
@<TRIPOS>BOND
1 1 2 1
2 2 3 1
3 2 5 1
4 3 4 ar
5 3 17 ar
6 5 6 1
7 6 7 1
8 7 8 1
9 7 9 1
10 9 10 1
11 10 11 1
12 10 12 1
13 11 16 1
14 12 13 1
15 12 14 1
16 14 15 1
17 14 16 1
18 16 27 1
19 18 19 ar
20 18 23 ar
21 19 20 ar
22 20 21 ar
23 21 22 ar
24 22 23 ar
25 23 24 1
26 25 26 2
27 26 27 1
28 21 27 1
29 22 25 1
@<TRIPOS>SUBSTRUCTURE
1	SAM301	1	GROUP	1 A	SAM
