@<TRIPOS>MOLECULE
1VID.A
50 52 1 0 0 
SMALL
USER_CHARGES


@<TRIPOS>ATOM
  1 N      -21.5480    65.5460    44.0340 N.4   1 SAM  -0.2708 
  2 H1     -21.7720    65.7561    44.9962 H     1 SAM   0.2632 
  3 H2     -21.4114    66.4072    43.5243 H     1 SAM   0.2632 
  4 H3     -20.7020    64.9955    43.9978 H     1 SAM   0.2632 
  5 CA     -22.5850    64.8340    43.4650 C.3   1 SAM   0.0402 
  6 HA     -22.5184    64.5182    42.4239 H     1 SAM   0.0201 
  7 C      -23.7690    65.7160    43.3900 C.2   1 SAM   0.5890 
  8 O      -24.0930    66.4840    44.3130 O.co2 1 SAM  -0.5793 
  9 CB     -22.5970    63.6290    44.2540 C.3   1 SAM  -0.0057 
 10 HB1    -23.6590    63.4107    44.3667 H     1 SAM   0.0251 
 11 HB2    -22.1883    63.9497    45.2122 H     1 SAM   0.0251 
 12 CG     -21.9990    62.3110    44.0540 C.3   1 SAM   0.0472 
 13 HG1    -20.9342    62.4368    44.2502 H     1 SAM   0.0702 
 14 HG2    -22.1490    62.0753    43.0004 H     1 SAM   0.0702 
 15 SD     -22.4940    60.8250    44.9650 S.3   1 SAM   0.3980 
 16 CE     -22.6240    61.3280    46.6350 C.3   1 SAM  -0.2708 
 17 HE1    -23.6572    61.5978    46.8538 H     1 SAM   0.1255 
 18 HE2    -21.9793    62.1901    46.8061 H     1 SAM   0.1255 
 19 HE3    -22.3166    60.5096    47.2860 H     1 SAM   0.1255 
 20 C5'    -20.7990    60.3700    44.5630 C.3   1 SAM   0.0040 
 21 H5'1   -20.4229    60.0199    45.5243 H     1 SAM   0.0727 
 22 H5'2   -20.3531    61.3366    44.3286 H     1 SAM   0.0727 
 23 C4'    -20.0980    59.4610    43.6030 C.3   1 SAM   0.2323 
 24 H4'    -19.9823    60.3344    42.9612 H     1 SAM   0.0414 
 25 O4'    -18.7770    59.2110    43.6520 O.3   1 SAM  -0.2867 
 26 C3'    -20.9340    58.4240    42.8570 C.3   1 SAM  -0.0049 
 27 H3'    -21.9169    58.1804    43.2604 H     1 SAM   0.0808 
 28 O3'    -21.3930    58.8160    41.6040 O.3   1 SAM  -0.4591 
 29 H3'    -21.8411    58.0637    41.2106 H     1 SAM   0.3041 
 30 C2'    -19.8510    57.2250    42.9350 C.3   1 SAM   0.2891 
 31 H2'    -20.1713    56.5212    43.7033 H     1 SAM   0.0526 
 32 O2'    -19.7080    56.3350    41.8470 O.3   1 SAM  -0.4681 
 33 H2'    -20.5635    55.9287    41.6900 H     1 SAM   0.3123 
 34 C1'    -18.5610    57.9950    43.1520 C.3   1 SAM  -0.0458 
 35 H1'    -18.3958    57.5042    42.1929 H     1 SAM   0.1228 
 36 OXT    -24.4140    65.6890    42.3660 O.co2 1 SAM  -0.5793 
 37 N1     -13.3020    58.2180    42.9040 N.ar  1 SAM  -0.6469 
 38 C2     -14.2590    58.7410    42.0970 C.ar  1 SAM   0.5171 
 39 H2     -13.8800    59.3459    41.2865 H     1 SAM  -0.0031 
 40 N3     -15.5950    58.6350    42.1340 N.ar  1 SAM  -0.5690 
 41 C4     -16.0680    58.0160    43.2400 C.ar  1 SAM   0.3711 
 42 C5     -15.1700    57.3240    44.1170 C.ar  1 SAM   0.1382 
 43 C6     -13.7540    57.4650    43.9040 C.ar  1 SAM   0.5748 
 44 N6     -12.8230    56.8630    44.6640 N.pl3 1 SAM  -0.6717 
 45 H61    -13.1040    56.2732    45.4342 H     1 SAM   0.3091 
 46 H62    -11.8424    57.0005    44.4649 H     1 SAM   0.3091 
 47 N7     -15.7850    56.7390    45.1140 N.2   1 SAM  -0.5519 
 48 C8     -17.0070    57.1030    44.8160 C.2   1 SAM   0.2577 
 49 H8     -17.8250    56.7427    45.4222 H     1 SAM   0.0749 
 50 N9     -17.2690    57.9060    43.7850 N.pl3 1 SAM  -0.1745 
@<TRIPOS>BOND
  1   1   2  1   
  2   1   3  1   
  3   1   4  1   
  4   1   5  1   
  5   5   6  1   
  6   5   7  1   
  7   5   9  1   
  8   7   8  ar  
  9   7  36  ar  
 10   9  10  1   
 11   9  11  1   
 12   9  12  1   
 13  12  13  1   
 14  12  14  1   
 15  12  15  1   
 16  15  16  1   
 17  15  20  1   
 18  16  17  1   
 19  16  18  1   
 20  16  19  1   
 21  20  21  1   
 22  20  22  1   
 23  20  23  1   
 24  23  24  1   
 25  23  25  1   
 26  23  26  1   
 27  25  34  1   
 28  26  27  1   
 29  26  28  1   
 30  26  30  1   
 31  28  29  1   
 32  30  31  1   
 33  30  32  1   
 34  30  34  1   
 35  32  33  1   
 36  34  35  1   
 37  34  50  1   
 38  37  38  ar  
 39  37  43  ar  
 40  38  39  1   
 41  38  40  ar  
 42  40  41  ar  
 43  41  42  ar  
 44  41  50  1   
 45  42  43  ar  
 46  42  47  1   
 47  43  44  1   
 48  44  45  1   
 49  44  46  1   
 50  47  48  2   
 51  48  49  1   
 52  48  50  1   
@<TRIPOS>SUBSTRUCTURE
  1 SAM  25 GROUP 4 A **** 0

# MOE 2022.02 (io_trps.svl 2020.11)
