# created with PyMOL 2.5.0
@<TRIPOS>MOLECULE
6A5K
27 29 1                 
SMALL
USER_CHARGES
@<TRIPOS>ATOM
1	   N	28.198	35.190	60.577	N.3	1	SAM805	0.000	
2	  CA	29.300	35.570	61.480	C.3	1	SAM805	0.000	
3	   C	28.840	36.370	62.700	C.2	1	SAM805	0.000	
4	   O	29.669	36.871	63.473	O.co2	1	SAM805	0.000	
5	  CB	30.368	36.356	60.720	C.3	1	SAM805	0.000	
6	  CG	31.264	35.430	59.909	C.3	1	SAM805	0.000	
7	  SD	32.236	34.438	61.067	S.3	1	SAM805	0.000	
8	  CE	33.869	34.851	60.467	C.3	1	SAM805	0.000	
9	 C5'	32.150	32.756	60.432	C.3	1	SAM805	0.000	
10	 C4'	30.912	32.050	60.948	C.3	1	SAM805	0.000	
11	 O4'	29.765	32.521	60.253	O.3	1	SAM805	0.000	
12	 C3'	30.989	30.556	60.698	C.3	1	SAM805	0.000	
13	 O3'	31.602	29.890	61.777	O.3	1	SAM805	0.000	
14	 C2'	29.530	30.200	60.577	C.3	1	SAM805	0.000	
15	 O2'	28.994	30.113	61.878	O.3	1	SAM805	0.000	
16	 C1'	28.930	31.429	59.930	C.3	1	SAM805	0.000	
17	 OXT	27.640	36.540	62.934	O.co2	1	SAM805	0.000	
18	  N1	26.958	28.627	55.993	N.2	1	SAM805	0.000	
19	  C2	26.730	28.485	57.348	C.2	1	SAM805	0.000	
20	  N3	27.348	29.333	58.247	N.2	1	SAM805	0.000	
21	  C4	28.171	30.309	57.799	C.2	1	SAM805	0.000	
22	  C5	28.419	30.465	56.434	C.2	1	SAM805	0.000	
23	  C6	27.790	29.620	55.526	C.2	1	SAM805	0.000	
24	  N6	27.996	29.744	54.213	N.pl3	1	SAM805	0.000	
25	  N7	29.281	31.500	56.290	N.2	1	SAM805	0.000	
26	  C8	29.587	31.982	57.524	C.2	1	SAM805	0.000	
27	  N9	28.900	31.258	58.462	N.2	1	SAM805	0.000	
@<TRIPOS>BOND
1 1 2 1
2 2 3 1
3 2 5 1
4 3 4 ar
5 3 17 ar
6 5 6 1
7 6 7 1
8 7 8 1
9 7 9 1
10 9 10 1
11 10 11 1
12 10 12 1
13 11 16 1
14 12 13 1
15 12 14 1
16 14 15 1
17 14 16 1
18 16 27 1
19 18 19 ar
20 18 23 ar
21 19 20 ar
22 20 21 ar
23 21 22 ar
24 21 27 ar
25 22 23 ar
26 22 25 ar
27 23 24 1
28 25 26 ar
29 26 27 ar
@<TRIPOS>SUBSTRUCTURE
1	SAM805	1	GROUP	1 A	SAM
