@<TRIPOS>MOLECULE
6A5K.A
51 53 1 0 0 
SMALL
USER_CHARGES


@<TRIPOS>ATOM
  1 N       28.1980    35.1900    60.5770 N.4   1 SAM  -0.8530 
  2 H1      27.7705    36.0231    60.1985 H     1 SAM   0.4500 
  3 H2      27.5080    34.6616    61.0916 H     1 SAM   0.4500 
  4 H3      28.5607    34.6251    59.8224 H     1 SAM   0.4500 
  5 CA      29.3000    35.5700    61.4800 C.3   1 SAM   0.3170 
  6 HA      29.7187    34.6357    61.8541 H     1 SAM   0.0800 
  7 C       28.8400    36.3700    62.7000 C.2   1 SAM   0.9060 
  8 O       29.6690    36.8710    63.4730 O.co2 1 SAM  -0.9000 
  9 CB      30.3680    36.3560    60.7200 C.3   1 SAM  -0.1600 
 10 HB1     30.9801    36.9060    61.4348 H     1 SAM   0.0800 
 11 HB2     29.8789    37.0580    60.0447 H     1 SAM   0.0800 
 12 CG      31.2640    35.4300    59.9090 C.3   1 SAM  -0.1525 
 13 HG1     31.9292    36.0187    59.2773 H     1 SAM   0.0800 
 14 HG2     30.6534    34.7775    59.2849 H     1 SAM   0.0800 
 15 SD      32.2360    34.4380    61.0670 S.3   1 SAM   0.9775 
 16 CE      33.8690    34.8510    60.4670 C.3   1 SAM  -0.2325 
 17 HE1     34.1166    35.8711    60.7605 H     1 SAM   0.0800 
 18 HE2     33.8878    34.7709    59.3801 H     1 SAM   0.0800 
 19 HE3     34.5981    34.1628    60.8947 H     1 SAM   0.0800 
 20 C5'     32.1500    32.7560    60.4320 C.3   1 SAM  -0.1525 
 21 H5'1    33.0350    32.2068    60.7533 H     1 SAM   0.0800 
 22 H5'2    32.1167    32.7862    59.3429 H     1 SAM   0.0800 
 23 C4'     30.9120    32.0500    60.9480 C.3   1 SAM   0.2000 
 24 H4'     30.8468    32.2520    62.0171 H     1 SAM   0.0800 
 25 O4'     29.7650    32.5210    60.2530 O.3   1 SAM  -0.5600 
 26 C3'     30.9890    30.5560    60.6980 C.3   1 SAM   0.2000 
 27 H3'     31.5849    30.2745    59.8298 H     1 SAM   0.0800 
 28 O3'     31.6020    29.8900    61.7770 O.3   1 SAM  -0.6800 
 29 H3'     31.5679    28.9482    61.5940 H     1 SAM   0.4000 
 30 C2'     29.5300    30.2000    60.5770 C.3   1 SAM   0.2000 
 31 H2'     29.3497    29.2714    60.0355 H     1 SAM   0.0800 
 32 O2'     28.9940    30.1130    61.8780 O.3   1 SAM  -0.6800 
 33 H2'     29.4287    29.3817    62.3227 H     1 SAM   0.4000 
 34 C1'     28.9300    31.4290    59.9300 C.3   1 SAM   0.5691 
 35 H1'     27.9121    31.5917    60.2842 H     1 SAM   0.0800 
 36 OXT     27.6400    36.5400    62.9340 O.co2 1 SAM  -0.9000 
 37 N1      26.9580    28.6270    55.9930 N.2   1 SAM  -0.6610 
 38 C2      26.7300    28.4850    57.3480 C.2   1 SAM   0.6010 
 39 H2      26.0678    27.7102    57.7052 H     1 SAM   0.0600 
 40 N3      27.3480    29.3330    58.2470 N.2   1 SAM  -0.6610 
 41 C4      28.1710    30.3090    57.7990 C.2   1 SAM   0.5000 
 42 C5      28.4190    30.4650    56.4340 C.2   1 SAM   0.4500 
 43 C6      27.7900    29.6200    55.5260 C.2   1 SAM   0.6110 
 44 N6      27.9960    29.7440    54.2130 N.2   1 SAM  -0.2000 
 45 H62     27.5308    29.1215    53.5678 H     1 SAM   0.4000 
 46 H61     28.6171    30.4603    53.8647 H     1 SAM   0.4000 
 47 N7      29.2810    31.5000    56.2900 N.2   1 SAM  -0.6960 
 48 C8      29.5870    31.9820    57.5240 C.3   1 SAM   0.4551 
 49 H81     29.3005    33.0317    57.5890 H     1 SAM   0.0800 
 50 H82     30.6585    31.8863    57.6996 H     1 SAM   0.0800 
 51 N9      28.9000    31.2580    58.4620 N.pl3 1 SAM  -0.7882 
@<TRIPOS>BOND
  1   1   2  1   
  2   1   3  1   
  3   1   4  1   
  4   1   5  1   
  5   5   6  1   
  6   5   7  1   
  7   5   9  1   
  8   7   8  ar  
  9   7  36  ar  
 10   9  10  1   
 11   9  11  1   
 12   9  12  1   
 13  12  13  1   
 14  12  14  1   
 15  12  15  1   
 16  15  16  1   
 17  15  20  1   
 18  16  17  1   
 19  16  18  1   
 20  16  19  1   
 21  20  21  1   
 22  20  22  1   
 23  20  23  1   
 24  23  24  1   
 25  23  25  1   
 26  23  26  1   
 27  25  34  1   
 28  26  27  1   
 29  26  28  1   
 30  26  30  1   
 31  28  29  1   
 32  30  31  1   
 33  30  32  1   
 34  30  34  1   
 35  32  33  1   
 36  34  35  1   
 37  34  51  1   
 38  37  38  2   
 39  37  43  1   
 40  38  39  1   
 41  38  40  1   
 42  40  41  2   
 43  41  42  1   
 44  41  51  1   
 45  42  43  1   
 46  42  47  2   
 47  43  44  2   
 48  44  45  1   
 49  44  46  1   
 50  47  48  1   
 51  48  49  1   
 52  48  50  1   
 53  48  51  1   
@<TRIPOS>SUBSTRUCTURE
  1 SAM  25 GROUP 4 A **** 0

# MOE 2022.02 (io_trps.svl 2020.11)
