# created with PyMOL 2.4.0
@<TRIPOS>MOLECULE
temp
50 52 1                 
SMALL
USER_CHARGES
@<TRIPOS>ATOM
1	   N	28.198	35.190	60.577	N.4	1	SAM1	0.000	
2	  CA	29.300	35.570	61.480	C.3	1	SAM1	0.000	
3	   C	28.840	36.370	62.700	C.2	1	SAM1	0.000	
4	   O	29.669	36.871	63.473	O.co2	1	SAM1	0.000	
5	  CB	30.368	36.356	60.720	C.3	1	SAM1	0.000	
6	  CG	31.264	35.430	59.909	C.3	1	SAM1	0.000	
7	  SD	32.236	34.438	61.067	S.3	1	SAM1	0.000	
8	  CE	33.869	34.851	60.467	C.3	1	SAM1	0.000	
9	 C5'	32.150	32.756	60.432	C.3	1	SAM1	0.000	
10	 C4'	30.912	32.050	60.948	C.3	1	SAM1	0.000	
11	 O4'	29.765	32.521	60.253	O.3	1	SAM1	0.000	
12	 C3'	30.989	30.556	60.698	C.3	1	SAM1	0.000	
13	 O3'	31.602	29.890	61.777	O.3	1	SAM1	0.000	
14	 C2'	29.530	30.200	60.577	C.3	1	SAM1	0.000	
15	 O2'	28.994	30.113	61.878	O.3	1	SAM1	0.000	
16	 C1'	28.930	31.429	59.930	C.3	1	SAM1	0.000	
17	 OXT	27.640	36.540	62.934	O.co2	1	SAM1	0.000	
18	  N1	26.958	28.627	55.993	N.2	1	SAM1	0.000	
19	  C2	26.730	28.485	57.348	C.2	1	SAM1	0.000	
20	  N3	27.348	29.333	58.247	N.2	1	SAM1	0.000	
21	  C4	28.171	30.309	57.799	C.2	1	SAM1	0.000	
22	  C5	28.419	30.465	56.434	C.2	1	SAM1	0.000	
23	  C6	27.790	29.620	55.526	C.2	1	SAM1	0.000	
24	  N6	27.996	29.744	54.213	N.pl3	1	SAM1	0.000	
25	  N7	29.281	31.500	56.290	N.2	1	SAM1	0.000	
26	  C8	29.587	31.982	57.524	C.2	1	SAM1	0.000	
27	  N9	28.900	31.258	58.462	N.2	1	SAM1	0.000	
28	  HA	29.719	34.636	61.854	 H	1	SAM1	0.000	
29	 HB1	30.980	36.906	61.435	 H	1	SAM1	0.000	
30	 HB2	29.879	37.058	60.045	 H	1	SAM1	0.000	
31	 HG1	31.929	36.019	59.277	 H	1	SAM1	0.000	
32	 HG2	30.653	34.778	59.285	 H	1	SAM1	0.000	
33	 HE1	34.117	35.871	60.761	 H	1	SAM1	0.000	
34	 HE2	33.888	34.771	59.380	 H	1	SAM1	0.000	
35	 HE3	34.598	34.163	60.895	 H	1	SAM1	0.000	
36	  H1	27.771	36.023	60.199	 H	1	SAM1	0.000	
37	  H2	27.508	34.662	61.092	 H	1	SAM1	0.000	
38	  H2	26.068	27.710	57.705	 H	1	SAM1	0.000	
39	  H3	28.561	34.625	59.822	 H	1	SAM1	0.000	
40	  H8	30.261	32.801	57.730	 H	1	SAM1	0.000	
41	 H1'	27.912	31.592	60.284	 H	1	SAM1	0.000	
42	 H2'	29.350	29.271	60.035	 H	1	SAM1	0.000	
43	 H2'	29.429	29.382	62.323	 H	1	SAM1	0.000	
44	 H3'	31.585	30.274	59.830	 H	1	SAM1	0.000	
45	 H3'	31.568	28.948	61.594	 H	1	SAM1	0.000	
46	 H4'	30.847	32.252	62.017	 H	1	SAM1	0.000	
47	 H61	28.617	30.460	53.865	 H	1	SAM1	0.000	
48	 H62	27.531	29.122	53.568	 H	1	SAM1	0.000	
49	H5'1	33.035	32.207	60.753	 H	1	SAM1	0.000	
50	H5'2	32.117	32.786	59.343	 H	1	SAM1	0.000	
@<TRIPOS>BOND
1 1 2 1
2 1 36 1
3 1 37 1
4 1 39 1
5 2 3 1
6 2 5 1
7 2 28 1
8 3 4 ar
9 3 17 ar
10 5 6 1
11 5 29 1
12 5 30 1
13 6 7 1
14 6 31 1
15 6 32 1
16 7 8 1
17 7 9 1
18 8 33 1
19 8 34 1
20 8 35 1
21 9 10 1
22 9 49 1
23 9 50 1
24 10 11 1
25 10 12 1
26 10 46 1
27 11 16 1
28 12 13 1
29 12 14 1
30 12 44 1
31 13 45 1
32 14 15 1
33 14 16 1
34 14 42 1
35 15 43 1
36 16 27 1
37 16 41 1
38 18 19 ar
39 18 23 ar
40 19 20 ar
41 19 38 1
42 20 21 ar
43 21 22 ar
44 21 27 ar
45 22 23 ar
46 22 25 ar
47 23 24 1
48 24 47 1
49 24 48 1
50 25 26 ar
51 26 27 ar
52 26 40 1
@<TRIPOS>SUBSTRUCTURE
1	SAM1	1	GROUP	1 A	SAM
