# created with PyMOL 2.5.0
@<TRIPOS>MOLECULE
6NW6
27 29 1                 
SMALL
USER_CHARGES
@<TRIPOS>ATOM
1	   N	-24.431	-19.862	7.186	N.3	1	SAM301	0.000	
2	  CA	-23.250	-20.726	7.215	C.3	1	SAM301	0.000	
3	   C	-22.686	-20.916	5.804	C.2	1	SAM301	0.000	
4	   O	-21.471	-20.938	5.598	O.co2	1	SAM301	0.000	
5	  CB	-23.573	-22.056	7.906	C.3	1	SAM301	0.000	
6	  CG	-22.430	-22.802	8.585	C.3	1	SAM301	0.000	
7	  SD	-22.432	-22.806	10.406	S.3	1	SAM301	0.000	
8	  CE	-22.085	-24.551	10.754	C.3	1	SAM301	0.000	
9	 C5'	-24.155	-22.695	10.975	C.3	1	SAM301	0.000	
10	 C4'	-24.550	-21.362	11.618	C.3	1	SAM301	0.000	
11	 O4'	-23.749	-20.985	12.753	O.3	1	SAM301	0.000	
12	 C3'	-24.439	-20.222	10.622	C.3	1	SAM301	0.000	
13	 O3'	-25.588	-20.132	9.791	O.3	1	SAM301	0.000	
14	 C2'	-24.279	-19.015	11.509	C.3	1	SAM301	0.000	
15	 O2'	-25.556	-18.603	11.992	O.3	1	SAM301	0.000	
16	 C1'	-23.515	-19.585	12.693	C.3	1	SAM301	0.000	
17	 OXT	-23.430	-21.036	4.830	O.co2	1	SAM301	0.000	
18	  N1	-19.712	-15.983	12.802	N.2	1	SAM301	0.000	
19	  C2	-21.079	-15.776	12.843	C.2	1	SAM301	0.000	
20	  N3	-21.942	-16.854	12.809	N.2	1	SAM301	0.000	
21	  C4	-21.433	-18.113	12.707	C.2	1	SAM301	0.000	
22	  C5	-20.050	-18.338	12.641	C.2	1	SAM301	0.000	
23	  C6	-19.185	-17.251	12.694	C.2	1	SAM301	0.000	
24	  N6	-17.852	-17.404	12.645	N.pl3	1	SAM301	0.000	
25	  N7	-19.852	-19.686	12.544	N.2	1	SAM301	0.000	
26	  C8	-21.061	-20.294	12.548	C.2	1	SAM301	0.000	
27	  N9	-22.051	-19.335	12.629	N.2	1	SAM301	0.000	
@<TRIPOS>BOND
1 1 2 1
2 2 3 1
3 2 5 1
4 3 4 ar
5 3 17 ar
6 5 6 1
7 6 7 1
8 7 8 1
9 7 9 1
10 9 10 1
11 10 11 1
12 10 12 1
13 11 16 1
14 12 13 1
15 12 14 1
16 14 15 1
17 14 16 1
18 16 27 1
19 18 19 ar
20 18 23 ar
21 19 20 ar
22 20 21 ar
23 21 22 ar
24 21 27 ar
25 22 23 ar
26 22 25 ar
27 23 24 1
28 25 26 ar
29 26 27 ar
@<TRIPOS>SUBSTRUCTURE
1	SAM301	1	GROUP	1 A	SAM
