# created with PyMOL 2.5.0
@<TRIPOS>MOLECULE
6NW6
27 29 1                 
SMALL
USER_CHARGES
@<TRIPOS>ATOM
1	   N	-8.733	-8.528	29.974	N.3	1	SAM301	0.000	
2	  CA	-9.088	-7.308	29.248	C.3	1	SAM301	0.000	
3	   C	-7.825	-6.479	29.000	C.2	1	SAM301	0.000	
4	   O	-7.784	-5.609	28.128	O.co2	1	SAM301	0.000	
5	  CB	-10.205	-6.548	29.978	C.3	1	SAM301	0.000	
6	  CG	-11.164	-5.684	29.163	C.3	1	SAM301	0.000	
7	  SD	-12.828	-6.334	28.799	S.3	1	SAM301	0.000	
8	  CE	-13.853	-4.872	29.103	C.3	1	SAM301	0.000	
9	 C5'	-13.373	-7.412	30.151	C.3	1	SAM301	0.000	
10	 C4'	-13.320	-8.923	29.877	C.3	1	SAM301	0.000	
11	 O4'	-14.174	-9.366	28.810	O.3	1	SAM301	0.000	
12	 C3'	-11.928	-9.400	29.504	C.3	1	SAM301	0.000	
13	 O3'	-11.097	-9.568	30.648	O.3	1	SAM301	0.000	
14	 C2'	-12.188	-10.692	28.774	C.3	1	SAM301	0.000	
15	 O2'	-12.413	-11.755	29.692	O.3	1	SAM301	0.000	
16	 C1'	-13.497	-10.375	28.073	C.3	1	SAM301	0.000	
17	 OXT	-6.801	-6.679	29.657	O.co2	1	SAM301	0.000	
18	  N1	-12.043	-11.685	23.233	N.2	1	SAM301	0.000	
19	  C2	-12.002	-12.458	24.375	C.2	1	SAM301	0.000	
20	  N3	-12.434	-11.926	25.580	N.2	1	SAM301	0.000	
21	  C4	-12.885	-10.655	25.624	C.2	1	SAM301	0.000	
22	  C5	-12.923	-9.856	24.485	C.2	1	SAM301	0.000	
23	  C6	-12.503	-10.387	23.263	C.2	1	SAM301	0.000	
24	  N6	-12.527	-9.669	22.133	N.pl3	1	SAM301	0.000	
25	  N7	-13.411	-8.646	24.846	N.2	1	SAM301	0.000	
26	  C8	-13.675	-8.669	26.172	C.2	1	SAM301	0.000	
27	  N9	-13.329	-9.896	26.681	N.2	1	SAM301	0.000	
@<TRIPOS>BOND
1 1 2 1
2 2 3 1
3 2 5 1
4 3 4 ar
5 3 17 ar
6 5 6 1
7 6 7 1
8 7 8 1
9 7 9 1
10 9 10 1
11 10 11 1
12 10 12 1
13 11 16 1
14 12 13 1
15 12 14 1
16 14 15 1
17 14 16 1
18 16 27 1
19 18 19 ar
20 18 23 ar
21 19 20 ar
22 20 21 ar
23 21 22 ar
24 21 27 ar
25 22 23 ar
26 22 25 ar
27 23 24 1
28 25 26 ar
29 26 27 ar
@<TRIPOS>SUBSTRUCTURE
1	SAM301	1	GROUP	1 B	SAM
