# created with PyMOL 2.4.0
@<TRIPOS>MOLECULE
temp
50 52 1                 
SMALL
USER_CHARGES
@<TRIPOS>ATOM
1	   N	-24.431	-19.862	7.186	N.4	1	SAM1	0.000	
2	  CA	-23.250	-20.726	7.215	C.3	1	SAM1	0.000	
3	   C	-22.686	-20.916	5.804	C.2	1	SAM1	0.000	
4	   O	-21.471	-20.938	5.598	O.co2	1	SAM1	0.000	
5	  CB	-23.573	-22.056	7.906	C.3	1	SAM1	0.000	
6	  CG	-22.430	-22.802	8.585	C.3	1	SAM1	0.000	
7	  SD	-22.432	-22.806	10.406	S.3	1	SAM1	0.000	
8	  CE	-22.085	-24.551	10.754	C.3	1	SAM1	0.000	
9	 C5'	-24.155	-22.695	10.975	C.3	1	SAM1	0.000	
10	 C4'	-24.550	-21.362	11.618	C.3	1	SAM1	0.000	
11	 O4'	-23.749	-20.985	12.753	O.3	1	SAM1	0.000	
12	 C3'	-24.439	-20.222	10.622	C.3	1	SAM1	0.000	
13	 O3'	-25.588	-20.132	9.791	O.3	1	SAM1	0.000	
14	 C2'	-24.279	-19.015	11.509	C.3	1	SAM1	0.000	
15	 O2'	-25.556	-18.603	11.992	O.3	1	SAM1	0.000	
16	 C1'	-23.515	-19.585	12.693	C.3	1	SAM1	0.000	
17	 OXT	-23.430	-21.036	4.830	O.co2	1	SAM1	0.000	
18	  N1	-19.712	-15.983	12.802	N.2	1	SAM1	0.000	
19	  C2	-21.079	-15.776	12.843	C.2	1	SAM1	0.000	
20	  N3	-21.942	-16.854	12.809	N.2	1	SAM1	0.000	
21	  C4	-21.433	-18.113	12.707	C.2	1	SAM1	0.000	
22	  C5	-20.050	-18.338	12.641	C.2	1	SAM1	0.000	
23	  C6	-19.185	-17.251	12.694	C.2	1	SAM1	0.000	
24	  N6	-17.852	-17.404	12.645	N.pl3	1	SAM1	0.000	
25	  N7	-19.852	-19.686	12.544	N.2	1	SAM1	0.000	
26	  C8	-21.061	-20.294	12.548	C.2	1	SAM1	0.000	
27	  N9	-22.051	-19.335	12.629	N.2	1	SAM1	0.000	
28	  HA	-22.470	-20.244	7.804	 H	1	SAM1	0.000	
29	 HB1	-23.992	-22.721	7.151	 H	1	SAM1	0.000	
30	 HB2	-24.326	-21.852	8.668	 H	1	SAM1	0.000	
31	 HG1	-21.496	-22.347	8.256	 H	1	SAM1	0.000	
32	 HG2	-22.467	-23.839	8.251	 H	1	SAM1	0.000	
33	 HE1	-21.061	-24.783	10.461	 H	1	SAM1	0.000	
34	 HE2	-22.776	-25.178	10.191	 H	1	SAM1	0.000	
35	 HE3	-22.209	-24.741	11.820	 H	1	SAM1	0.000	
36	  H1	-25.158	-20.303	6.641	 H	1	SAM1	0.000	
37	  H2	-24.189	-18.975	6.768	 H	1	SAM1	0.000	
38	  H2	-21.472	-14.772	12.902	 H	1	SAM1	0.000	
39	  H3	-24.761	-19.712	8.128	 H	1	SAM1	0.000	
40	  H8	-21.225	-21.360	12.496	 H	1	SAM1	0.000	
41	 H1'	-23.879	-19.078	13.587	 H	1	SAM1	0.000	
42	 H2'	-23.805	-18.172	11.007	 H	1	SAM1	0.000	
43	 H2'	-25.414	-17.878	12.605	 H	1	SAM1	0.000	
44	 H3'	-23.614	-20.343	9.920	 H	1	SAM1	0.000	
45	 H3'	-26.352	-20.024	10.362	 H	1	SAM1	0.000	
46	 H4'	-25.575	-21.527	11.950	 H	1	SAM1	0.000	
47	 H61	-17.452	-18.328	12.568	 H	1	SAM1	0.000	
48	 H62	-17.249	-16.595	12.686	 H	1	SAM1	0.000	
49	H5'1	-24.318	-23.484	11.709	 H	1	SAM1	0.000	
50	H5'2	-24.804	-22.859	10.115	 H	1	SAM1	0.000	
@<TRIPOS>BOND
1 1 2 1
2 1 36 1
3 1 37 1
4 1 39 1
5 2 3 1
6 2 5 1
7 2 28 1
8 3 4 ar
9 3 17 ar
10 5 6 1
11 5 29 1
12 5 30 1
13 6 7 1
14 6 31 1
15 6 32 1
16 7 8 1
17 7 9 1
18 8 33 1
19 8 34 1
20 8 35 1
21 9 10 1
22 9 49 1
23 9 50 1
24 10 11 1
25 10 12 1
26 10 46 1
27 11 16 1
28 12 13 1
29 12 14 1
30 12 44 1
31 13 45 1
32 14 15 1
33 14 16 1
34 14 42 1
35 15 43 1
36 16 27 1
37 16 41 1
38 18 19 ar
39 18 23 ar
40 19 20 ar
41 19 38 1
42 20 21 ar
43 21 22 ar
44 21 27 ar
45 22 23 ar
46 22 25 ar
47 23 24 1
48 24 47 1
49 24 48 1
50 25 26 ar
51 26 27 ar
52 26 40 1
@<TRIPOS>SUBSTRUCTURE
1	SAM1	1	GROUP	1 A	SAM
