@<TRIPOS>MOLECULE
6NW6.B
51 53 1 0 0 
SMALL
USER_CHARGES


@<TRIPOS>ATOM
  1 N       -8.7330    -8.5280    29.9740 N.4   1 SAM  -0.8530 
  2 H1      -8.3539    -8.2837    30.8777 H     1 SAM   0.4500 
  3 H2      -8.0426    -9.0442    29.4476 H     1 SAM   0.4500 
  4 H3      -9.5575    -9.0981    30.0977 H     1 SAM   0.4500 
  5 CA      -9.0880    -7.3080    29.2480 C.3   1 SAM   0.3170 
  6 HA      -9.4994    -7.5532    28.2689 H     1 SAM   0.0800 
  7 C       -7.8250    -6.4790    29.0000 C.2   1 SAM   0.9060 
  8 O       -7.7840    -5.6090    28.1280 O.co2 1 SAM  -0.9000 
  9 CB     -10.2050    -6.5480    29.9780 C.3   1 SAM  -0.1600 
 10 HB1     -9.7243    -5.8937    30.7052 H     1 SAM   0.0800 
 11 HB2    -10.8085    -7.2903    30.5003 H     1 SAM   0.0800 
 12 CG     -11.1640    -5.6840    29.1630 C.3   1 SAM  -0.1525 
 13 HG1    -10.6814    -5.4824    28.2067 H     1 SAM   0.0800 
 14 HG2    -11.2961    -4.7490    29.7075 H     1 SAM   0.0800 
 15 SD     -12.8280    -6.3340    28.7990 S.3   1 SAM   0.9775 
 16 CE     -13.8530    -4.8720    29.1030 C.3   1 SAM  -0.2325 
 17 HE1    -13.6350    -4.1129    28.3518 H     1 SAM   0.0800 
 18 HE2    -13.6350    -4.4752    30.0945 H     1 SAM   0.0800 
 19 HE3    -14.9059    -5.1481    29.0456 H     1 SAM   0.0800 
 20 C5'    -13.3730    -7.4120    30.1510 C.3   1 SAM  -0.1525 
 21 H5'1   -14.4050    -7.1529    30.3876 H     1 SAM   0.0800 
 22 H5'2   -12.7400    -7.2082    31.0147 H     1 SAM   0.0800 
 23 C4'    -13.3200    -8.9230    29.8770 C.3   1 SAM   0.2000 
 24 H4'    -13.6568    -9.3448    30.8240 H     1 SAM   0.0800 
 25 O4'    -14.1740    -9.3660    28.8100 O.3   1 SAM  -0.5600 
 26 C3'    -11.9280    -9.4000    29.5040 C.3   1 SAM   0.2000 
 27 H3'    -11.3798    -8.6835    28.8923 H     1 SAM   0.0800 
 28 O3'    -11.0970    -9.5680    30.6480 O.3   1 SAM  -0.6800 
 29 H3'    -11.5301   -10.1950    31.2318 H     1 SAM   0.4000 
 30 C2'    -12.1880   -10.6920    28.7740 C.3   1 SAM   0.2000 
 31 H2'    -11.3671   -11.0010    28.1269 H     1 SAM   0.0800 
 32 O2'    -12.4130   -11.7550    29.6920 O.3   1 SAM  -0.6800 
 33 H2'    -12.6397   -12.5360    29.1819 H     1 SAM   0.4000 
 34 C1'    -13.4970   -10.3750    28.0730 C.3   1 SAM   0.5691 
 35 H1'    -14.0610   -11.3066    28.0269 H     1 SAM   0.0800 
 36 OXT     -6.8010    -6.6790    29.6570 O.co2 1 SAM  -0.9000 
 37 N1     -12.0430   -11.6850    23.2330 N.2   1 SAM  -0.6610 
 38 C2     -12.0020   -12.4580    24.3750 C.2   1 SAM   0.6010 
 39 H2     -11.6351   -13.4728    24.3304 H     1 SAM   0.0600 
 40 N3     -12.4340   -11.9260    25.5800 N.2   1 SAM  -0.6610 
 41 C4     -12.8850   -10.6550    25.6240 C.2   1 SAM   0.5000 
 42 C5     -12.9230    -9.8560    24.4850 C.2   1 SAM   0.4500 
 43 C6     -12.5030   -10.3870    23.2630 C.2   1 SAM   0.6110 
 44 N6     -12.5270    -9.6690    22.1330 N.2   1 SAM  -0.2000 
 45 H62    -12.2164   -10.0823    21.2654 H     1 SAM   0.4000 
 46 H61    -12.8557    -8.7141    22.1483 H     1 SAM   0.4000 
 47 N7     -13.4110    -8.6460    24.8460 N.2   1 SAM  -0.6960 
 48 C8     -13.6750    -8.6690    26.1720 C.3   1 SAM   0.4551 
 49 H81    -14.7384    -8.4937    26.3349 H     1 SAM   0.0800 
 50 H82    -13.0978    -7.8912    26.6720 H     1 SAM   0.0800 
 51 N9     -13.3290    -9.8960    26.6810 N.pl3 1 SAM  -0.7882 
@<TRIPOS>BOND
  1   1   2  1   
  2   1   3  1   
  3   1   4  1   
  4   1   5  1   
  5   5   6  1   
  6   5   7  1   
  7   5   9  1   
  8   7   8  ar  
  9   7  36  ar  
 10   9  10  1   
 11   9  11  1   
 12   9  12  1   
 13  12  13  1   
 14  12  14  1   
 15  12  15  1   
 16  15  16  1   
 17  15  20  1   
 18  16  17  1   
 19  16  18  1   
 20  16  19  1   
 21  20  21  1   
 22  20  22  1   
 23  20  23  1   
 24  23  24  1   
 25  23  25  1   
 26  23  26  1   
 27  25  34  1   
 28  26  27  1   
 29  26  28  1   
 30  26  30  1   
 31  28  29  1   
 32  30  31  1   
 33  30  32  1   
 34  30  34  1   
 35  32  33  1   
 36  34  35  1   
 37  34  51  1   
 38  37  38  2   
 39  37  43  1   
 40  38  39  1   
 41  38  40  1   
 42  40  41  2   
 43  41  42  1   
 44  41  51  1   
 45  42  43  1   
 46  42  47  2   
 47  43  44  2   
 48  44  45  1   
 49  44  46  1   
 50  47  48  1   
 51  48  49  1   
 52  48  50  1   
 53  48  51  1   
@<TRIPOS>SUBSTRUCTURE
  1 SAM  26 GROUP 4 B **** 0

# MOE 2022.02 (io_trps.svl 2020.11)
