# created with PyMOL 2.4.0
@<TRIPOS>MOLECULE
temp
50 52 1                 
SMALL
USER_CHARGES
@<TRIPOS>ATOM
1	   N	-8.733	-8.528	29.974	N.4	1	SAM1	0.000	
2	  CA	-9.088	-7.308	29.248	C.3	1	SAM1	0.000	
3	   C	-7.825	-6.479	29.000	C.2	1	SAM1	0.000	
4	   O	-7.784	-5.609	28.128	O.co2	1	SAM1	0.000	
5	  CB	-10.205	-6.548	29.978	C.3	1	SAM1	0.000	
6	  CG	-11.164	-5.684	29.163	C.3	1	SAM1	0.000	
7	  SD	-12.828	-6.334	28.799	S.3	1	SAM1	0.000	
8	  CE	-13.853	-4.872	29.103	C.3	1	SAM1	0.000	
9	 C5'	-13.373	-7.412	30.151	C.3	1	SAM1	0.000	
10	 C4'	-13.320	-8.923	29.877	C.3	1	SAM1	0.000	
11	 O4'	-14.174	-9.366	28.810	O.3	1	SAM1	0.000	
12	 C3'	-11.928	-9.400	29.504	C.3	1	SAM1	0.000	
13	 O3'	-11.097	-9.568	30.648	O.3	1	SAM1	0.000	
14	 C2'	-12.188	-10.692	28.774	C.3	1	SAM1	0.000	
15	 O2'	-12.413	-11.755	29.692	O.3	1	SAM1	0.000	
16	 C1'	-13.497	-10.375	28.073	C.3	1	SAM1	0.000	
17	 OXT	-6.801	-6.679	29.657	O.co2	1	SAM1	0.000	
18	  N1	-12.043	-11.685	23.233	N.2	1	SAM1	0.000	
19	  C2	-12.002	-12.458	24.375	C.2	1	SAM1	0.000	
20	  N3	-12.434	-11.926	25.580	N.2	1	SAM1	0.000	
21	  C4	-12.885	-10.655	25.624	C.2	1	SAM1	0.000	
22	  C5	-12.923	-9.856	24.485	C.2	1	SAM1	0.000	
23	  C6	-12.503	-10.387	23.263	C.2	1	SAM1	0.000	
24	  N6	-12.527	-9.669	22.133	N.pl3	1	SAM1	0.000	
25	  N7	-13.411	-8.646	24.846	N.2	1	SAM1	0.000	
26	  C8	-13.675	-8.669	26.172	C.2	1	SAM1	0.000	
27	  N9	-13.329	-9.896	26.681	N.2	1	SAM1	0.000	
28	  HA	-9.499	-7.553	28.269	 H	1	SAM1	0.000	
29	 HB1	-9.724	-5.894	30.705	 H	1	SAM1	0.000	
30	 HB2	-10.809	-7.290	30.500	 H	1	SAM1	0.000	
31	 HG1	-10.681	-5.482	28.207	 H	1	SAM1	0.000	
32	 HG2	-11.296	-4.749	29.708	 H	1	SAM1	0.000	
33	 HE1	-13.635	-4.113	28.352	 H	1	SAM1	0.000	
34	 HE2	-13.635	-4.475	30.094	 H	1	SAM1	0.000	
35	 HE3	-14.906	-5.148	29.046	 H	1	SAM1	0.000	
36	  H1	-8.354	-8.284	30.878	 H	1	SAM1	0.000	
37	  H2	-8.043	-9.044	29.448	 H	1	SAM1	0.000	
38	  H2	-11.635	-13.473	24.330	 H	1	SAM1	0.000	
39	  H3	-9.557	-9.098	30.098	 H	1	SAM1	0.000	
40	  H8	-14.092	-7.851	26.741	 H	1	SAM1	0.000	
41	 H1'	-14.061	-11.307	28.027	 H	1	SAM1	0.000	
42	 H2'	-11.367	-11.001	28.127	 H	1	SAM1	0.000	
43	 H2'	-12.640	-12.536	29.182	 H	1	SAM1	0.000	
44	 H3'	-11.380	-8.684	28.892	 H	1	SAM1	0.000	
45	 H3'	-11.530	-10.195	31.232	 H	1	SAM1	0.000	
46	 H4'	-13.657	-9.345	30.824	 H	1	SAM1	0.000	
47	 H61	-12.856	-8.714	22.148	 H	1	SAM1	0.000	
48	 H62	-12.216	-10.082	21.265	 H	1	SAM1	0.000	
49	H5'1	-14.405	-7.153	30.388	 H	1	SAM1	0.000	
50	H5'2	-12.740	-7.208	31.015	 H	1	SAM1	0.000	
@<TRIPOS>BOND
1 1 2 1
2 1 36 1
3 1 37 1
4 1 39 1
5 2 3 1
6 2 5 1
7 2 28 1
8 3 4 ar
9 3 17 ar
10 5 6 1
11 5 29 1
12 5 30 1
13 6 7 1
14 6 31 1
15 6 32 1
16 7 8 1
17 7 9 1
18 8 33 1
19 8 34 1
20 8 35 1
21 9 10 1
22 9 49 1
23 9 50 1
24 10 11 1
25 10 12 1
26 10 46 1
27 11 16 1
28 12 13 1
29 12 14 1
30 12 44 1
31 13 45 1
32 14 15 1
33 14 16 1
34 14 42 1
35 15 43 1
36 16 27 1
37 16 41 1
38 18 19 ar
39 18 23 ar
40 19 20 ar
41 19 38 1
42 20 21 ar
43 21 22 ar
44 21 27 ar
45 22 23 ar
46 22 25 ar
47 23 24 1
48 24 47 1
49 24 48 1
50 25 26 ar
51 26 27 ar
52 26 40 1
@<TRIPOS>SUBSTRUCTURE
1	SAM1	1	GROUP	1 B	SAM
