@<TRIPOS>MOLECULE
6NW6.A
51 53 1 0 0 
SMALL
USER_CHARGES


@<TRIPOS>ATOM
  1 N      -24.4310   -19.8620     7.1860 N.4   1 SAM  -0.8530 
  2 H1     -25.1578   -20.3035     6.6411 H     1 SAM   0.4500 
  3 H2     -24.1889   -18.9748     6.7684 H     1 SAM   0.4500 
  4 H3     -24.7613   -19.7115     8.1285 H     1 SAM   0.4500 
  5 CA     -23.2500   -20.7260     7.2150 C.3   1 SAM   0.3170 
  6 HA     -22.4699   -20.2440     7.8043 H     1 SAM   0.0800 
  7 C      -22.6860   -20.9160     5.8040 C.2   1 SAM   0.9060 
  8 O      -21.4710   -20.9380     5.5980 O.co2 1 SAM  -0.9000 
  9 CB     -23.5730   -22.0560     7.9060 C.3   1 SAM  -0.1600 
 10 HB1    -23.9916   -22.7211     7.1507 H     1 SAM   0.0800 
 11 HB2    -24.3255   -21.8519     8.6677 H     1 SAM   0.0800 
 12 CG     -22.4300   -22.8020     8.5850 C.3   1 SAM  -0.1525 
 13 HG1    -21.4957   -22.3473     8.2557 H     1 SAM   0.0800 
 14 HG2    -22.4667   -23.8390     8.2514 H     1 SAM   0.0800 
 15 SD     -22.4320   -22.8060    10.4060 S.3   1 SAM   0.9775 
 16 CE     -22.0850   -24.5510    10.7540 C.3   1 SAM  -0.2325 
 17 HE1    -21.0613   -24.7834    10.4606 H     1 SAM   0.0800 
 18 HE2    -22.7757   -25.1782    10.1905 H     1 SAM   0.0800 
 19 HE3    -22.2094   -24.7406    11.8202 H     1 SAM   0.0800 
 20 C5'    -24.1550   -22.6950    10.9750 C.3   1 SAM  -0.1525 
 21 H5'1   -24.3182   -23.4839    11.7092 H     1 SAM   0.0800 
 22 H5'2   -24.8044   -22.8590    10.1150 H     1 SAM   0.0800 
 23 C4'    -24.5500   -21.3620    11.6180 C.3   1 SAM   0.2000 
 24 H4'    -25.5750   -21.5269    11.9500 H     1 SAM   0.0800 
 25 O4'    -23.7490   -20.9850    12.7530 O.3   1 SAM  -0.5600 
 26 C3'    -24.4390   -20.2220    10.6220 C.3   1 SAM   0.2000 
 27 H3'    -23.6141   -20.3428     9.9198 H     1 SAM   0.0800 
 28 O3'    -25.5880   -20.1320     9.7910 O.3   1 SAM  -0.6800 
 29 H3'    -26.3517   -20.0236    10.3624 H     1 SAM   0.4000 
 30 C2'    -24.2790   -19.0150    11.5090 C.3   1 SAM   0.2000 
 31 H2'    -23.8048   -18.1719    11.0066 H     1 SAM   0.0800 
 32 O2'    -25.5560   -18.6030    11.9920 O.3   1 SAM  -0.6800 
 33 H2'    -25.4143   -17.8781    12.6053 H     1 SAM   0.4000 
 34 C1'    -23.5150   -19.5850    12.6930 C.3   1 SAM   0.5691 
 35 H1'    -23.8789   -19.0781    13.5867 H     1 SAM   0.0800 
 36 OXT    -23.4300   -21.0360     4.8300 O.co2 1 SAM  -0.9000 
 37 N1     -19.7120   -15.9830    12.8020 N.2   1 SAM  -0.6610 
 38 C2     -21.0790   -15.7760    12.8430 C.2   1 SAM   0.6010 
 39 H2     -21.4716   -14.7716    12.9016 H     1 SAM   0.0600 
 40 N3     -21.9420   -16.8540    12.8090 N.2   1 SAM  -0.6610 
 41 C4     -21.4330   -18.1130    12.7070 C.2   1 SAM   0.5000 
 42 C5     -20.0500   -18.3380    12.6410 C.2   1 SAM   0.4500 
 43 C6     -19.1850   -17.2510    12.6940 C.2   1 SAM   0.6110 
 44 N6     -17.8520   -17.4040    12.6450 N.2   1 SAM  -0.2000 
 45 H62    -17.2490   -16.5948    12.6856 H     1 SAM   0.4000 
 46 H61    -17.4523   -18.3283    12.5675 H     1 SAM   0.4000 
 47 N7     -19.8520   -19.6860    12.5440 N.2   1 SAM  -0.6960 
 48 C8     -21.0610   -20.2940    12.5480 C.3   1 SAM   0.4551 
 49 H81    -21.1300   -20.9626    13.4061 H     1 SAM   0.0800 
 50 H82    -21.1836   -20.8679    11.6294 H     1 SAM   0.0800 
 51 N9     -22.0510   -19.3350    12.6290 N.pl3 1 SAM  -0.7882 
@<TRIPOS>BOND
  1   1   2  1   
  2   1   3  1   
  3   1   4  1   
  4   1   5  1   
  5   5   6  1   
  6   5   7  1   
  7   5   9  1   
  8   7   8  ar  
  9   7  36  ar  
 10   9  10  1   
 11   9  11  1   
 12   9  12  1   
 13  12  13  1   
 14  12  14  1   
 15  12  15  1   
 16  15  16  1   
 17  15  20  1   
 18  16  17  1   
 19  16  18  1   
 20  16  19  1   
 21  20  21  1   
 22  20  22  1   
 23  20  23  1   
 24  23  24  1   
 25  23  25  1   
 26  23  26  1   
 27  25  34  1   
 28  26  27  1   
 29  26  28  1   
 30  26  30  1   
 31  28  29  1   
 32  30  31  1   
 33  30  32  1   
 34  30  34  1   
 35  32  33  1   
 36  34  35  1   
 37  34  51  1   
 38  37  38  2   
 39  37  43  1   
 40  38  39  1   
 41  38  40  1   
 42  40  41  2   
 43  41  42  1   
 44  41  51  1   
 45  42  43  1   
 46  42  47  2   
 47  43  44  2   
 48  44  45  1   
 49  44  46  1   
 50  47  48  1   
 51  48  49  1   
 52  48  50  1   
 53  48  51  1   
@<TRIPOS>SUBSTRUCTURE
  1 SAM  26 GROUP 4 A **** 0

# MOE 2022.02 (io_trps.svl 2020.11)
