# created with PyMOL 2.4.0
@<TRIPOS>MOLECULE
temp
50 52 1                 
SMALL
USER_CHARGES
@<TRIPOS>ATOM
1	   N	-25.079	32.207	2.149	N.4	1	SAM1	0.000	
2	  CA	-25.363	32.735	0.817	C.3	1	SAM1	0.000	
3	   C	-24.628	34.033	0.591	C.2	1	SAM1	0.000	
4	   O	-24.415	34.786	1.577	O.co2	1	SAM1	0.000	
5	  CB	-26.876	32.916	0.614	C.3	1	SAM1	0.000	
6	  CG	-27.572	33.926	1.521	C.3	1	SAM1	0.000	
7	  SD	-29.203	34.140	1.082	S.3	1	SAM1	0.000	
8	  CE	-29.634	35.703	1.373	C.3	1	SAM1	0.000	
9	 C5'	-30.158	33.159	2.071	C.3	1	SAM1	0.000	
10	 C4'	-30.063	31.645	1.836	C.3	1	SAM1	0.000	
11	 O4'	-30.771	30.919	2.882	O.3	1	SAM1	0.000	
12	 C3'	-30.648	31.213	0.500	C.3	1	SAM1	0.000	
13	 O3'	-29.762	30.348	-0.224	O.3	1	SAM1	0.000	
14	 C2'	-31.916	30.479	0.877	C.3	1	SAM1	0.000	
15	 O2'	-32.312	29.450	-0.035	O.3	1	SAM1	0.000	
16	 C1'	-31.546	29.920	2.246	C.3	1	SAM1	0.000	
17	 OXT	-24.263	34.324	-0.569	O.co2	1	SAM1	0.000	
18	  N1	-34.005	26.573	5.331	N.2	1	SAM1	0.000	
19	  C2	-32.833	26.445	4.681	C.2	1	SAM1	0.000	
20	  N3	-32.304	27.414	3.894	N.2	1	SAM1	0.000	
21	  C4	-32.962	28.567	3.725	C.2	1	SAM1	0.000	
22	  C5	-34.243	28.788	4.397	C.2	1	SAM1	0.000	
23	  C6	-34.750	27.704	5.232	C.2	1	SAM1	0.000	
24	  N6	-35.926	27.918	5.844	N.pl3	1	SAM1	0.000	
25	  N7	-34.679	30.025	4.090	N.2	1	SAM1	0.000	
26	  C8	-33.735	30.562	3.277	C.2	1	SAM1	0.000	
27	  N9	-32.732	29.683	3.065	N.2	1	SAM1	0.000	
28	  HA	-25.009	32.014	0.080	 H	1	SAM1	0.000	
29	 HB1	-27.349	31.947	0.774	 H	1	SAM1	0.000	
30	 HB2	-27.036	33.232	-0.417	 H	1	SAM1	0.000	
31	 HG1	-27.057	34.883	1.446	 H	1	SAM1	0.000	
32	 HG2	-27.526	33.569	2.550	 H	1	SAM1	0.000	
33	 HE1	-29.035	36.367	0.749	 H	1	SAM1	0.000	
34	 HE2	-29.462	35.938	2.423	 H	1	SAM1	0.000	
35	 HE3	-30.690	35.838	1.139	 H	1	SAM1	0.000	
36	  H1	-25.400	32.863	2.847	 H	1	SAM1	0.000	
37	  H2	-24.084	32.068	2.251	 H	1	SAM1	0.000	
38	  H2	-32.285	25.521	4.792	 H	1	SAM1	0.000	
39	  H3	-25.556	31.325	2.270	 H	1	SAM1	0.000	
40	  H8	-33.780	31.556	2.857	 H	1	SAM1	0.000	
41	 H1'	-31.019	28.973	2.129	 H	1	SAM1	0.000	
42	 H2'	-32.789	31.131	0.864	 H	1	SAM1	0.000	
43	 H2'	-32.477	29.864	-0.886	 H	1	SAM1	0.000	
44	 H3'	-30.822	32.064	-0.159	 H	1	SAM1	0.000	
45	 H3'	-30.204	30.095	-1.038	 H	1	SAM1	0.000	
46	 H4'	-28.998	31.412	1.844	 H	1	SAM1	0.000	
47	 H61	-36.411	28.794	5.714	 H	1	SAM1	0.000	
48	 H62	-36.326	27.203	6.435	 H	1	SAM1	0.000	
49	H5'1	-31.197	33.452	1.923	 H	1	SAM1	0.000	
50	H5'2	-29.870	33.352	3.105	 H	1	SAM1	0.000	
@<TRIPOS>BOND
1 1 2 1
2 1 36 1
3 1 37 1
4 1 39 1
5 2 3 1
6 2 5 1
7 2 28 1
8 3 4 ar
9 3 17 ar
10 5 6 1
11 5 29 1
12 5 30 1
13 6 7 1
14 6 31 1
15 6 32 1
16 7 8 1
17 7 9 1
18 8 33 1
19 8 34 1
20 8 35 1
21 9 10 1
22 9 49 1
23 9 50 1
24 10 11 1
25 10 12 1
26 10 46 1
27 11 16 1
28 12 13 1
29 12 14 1
30 12 44 1
31 13 45 1
32 14 15 1
33 14 16 1
34 14 42 1
35 15 43 1
36 16 27 1
37 16 41 1
38 18 19 ar
39 18 23 ar
40 19 20 ar
41 19 38 1
42 20 21 ar
43 21 22 ar
44 21 27 ar
45 22 23 ar
46 22 25 ar
47 23 24 1
48 24 47 1
49 24 48 1
50 25 26 ar
51 26 27 ar
52 26 40 1
@<TRIPOS>SUBSTRUCTURE
1	SAM1	1	GROUP	1 B	SAM
