@<TRIPOS>MOLECULE
4LG1.B
51 53 1 0 0 
SMALL
USER_CHARGES


@<TRIPOS>ATOM
  1 N      -25.0790    32.2070     2.1490 N.4   1 SAM  -0.8530 
  2 H1     -25.4005    32.8628     2.8467 H     1 SAM   0.4500 
  3 H2     -24.0838    32.0679     2.2509 H     1 SAM   0.4500 
  4 H3     -25.5563    31.3252     2.2705 H     1 SAM   0.4500 
  5 CA     -25.3630    32.7350     0.8170 C.3   1 SAM   0.3170 
  6 HA     -25.0091    32.0139     0.0802 H     1 SAM   0.0800 
  7 C      -24.6280    34.0330     0.5910 C.2   1 SAM   0.9060 
  8 O      -24.4150    34.7860     1.5770 O.co2 1 SAM  -0.9000 
  9 CB     -26.8760    32.9160     0.6140 C.3   1 SAM  -0.1600 
 10 HB1    -27.3491    31.9472     0.7740 H     1 SAM   0.0800 
 11 HB2    -27.0356    33.2325    -0.4168 H     1 SAM   0.0800 
 12 CG     -27.5720    33.9260     1.5210 C.3   1 SAM  -0.1525 
 13 HG1    -27.0566    34.8835     1.4458 H     1 SAM   0.0800 
 14 HG2    -27.5262    33.5685     2.5497 H     1 SAM   0.0800 
 15 SD     -29.2030    34.1400     1.0820 S.3   1 SAM   0.9775 
 16 CE     -29.6340    35.7030     1.3730 C.3   1 SAM  -0.2325 
 17 HE1    -29.0355    36.3670     0.7494 H     1 SAM   0.0800 
 18 HE2    -29.4618    35.9379     2.4234 H     1 SAM   0.0800 
 19 HE3    -30.6899    35.8384     1.1388 H     1 SAM   0.0800 
 20 C5'    -30.1580    33.1590     2.0710 C.3   1 SAM  -0.1525 
 21 H5'1   -31.1973    33.4520     1.9225 H     1 SAM   0.0800 
 22 H5'2   -29.8703    33.3518     3.1045 H     1 SAM   0.0800 
 23 C4'    -30.0630    31.6450     1.8360 C.3   1 SAM   0.2000 
 24 H4'    -28.9982    31.4121     1.8443 H     1 SAM   0.0800 
 25 O4'    -30.7710    30.9190     2.8820 O.3   1 SAM  -0.5600 
 26 C3'    -30.6480    31.2130     0.5000 C.3   1 SAM   0.2000 
 27 H3'    -30.8216    32.0638    -0.1588 H     1 SAM   0.0800 
 28 O3'    -29.7620    30.3480    -0.2240 O.3   1 SAM  -0.6800 
 29 H3'    -30.2041    30.0949    -1.0377 H     1 SAM   0.4000 
 30 C2'    -31.9160    30.4790     0.8770 C.3   1 SAM   0.2000 
 31 H2'    -32.7892    31.1313     0.8645 H     1 SAM   0.0800 
 32 O2'    -32.3120    29.4500    -0.0350 O.3   1 SAM  -0.6800 
 33 H2'    -31.5919    28.8175    -0.0894 H     1 SAM   0.4000 
 34 C1'    -31.5460    29.9200     2.2460 C.3   1 SAM   0.5691 
 35 H1'    -31.0186    28.9732     2.1295 H     1 SAM   0.0800 
 36 OXT    -24.2630    34.3240    -0.5690 O.co2 1 SAM  -0.9000 
 37 N1     -34.0050    26.5730     5.3310 N.2   1 SAM  -0.6610 
 38 C2     -32.8330    26.4450     4.6810 C.2   1 SAM   0.6010 
 39 H2     -32.2849    25.5211     4.7924 H     1 SAM   0.0600 
 40 N3     -32.3040    27.4140     3.8940 N.2   1 SAM  -0.6610 
 41 C4     -32.9620    28.5670     3.7250 C.2   1 SAM   0.5000 
 42 C5     -34.2430    28.7880     4.3970 C.2   1 SAM   0.4500 
 43 C6     -34.7500    27.7040     5.2320 C.2   1 SAM   0.6110 
 44 N6     -35.9260    27.9180     5.8440 N.2   1 SAM  -0.2000 
 45 H62    -36.3255    27.2026     6.4346 H     1 SAM   0.4000 
 46 H61    -36.4110    28.7943     5.7137 H     1 SAM   0.4000 
 47 N7     -34.6790    30.0250     4.0900 N.2   1 SAM  -0.6960 
 48 C8     -33.7350    30.5620     3.2770 C.3   1 SAM   0.4551 
 49 H81    -33.3308    31.4607     3.7428 H     1 SAM   0.0800 
 50 H82    -34.1912    30.8217     2.3217 H     1 SAM   0.0800 
 51 N9     -32.7320    29.6830     3.0650 N.pl3 1 SAM  -0.7882 
@<TRIPOS>BOND
  1   1   2  1   
  2   1   3  1   
  3   1   4  1   
  4   1   5  1   
  5   5   6  1   
  6   5   7  1   
  7   5   9  1   
  8   7   8  ar  
  9   7  36  ar  
 10   9  10  1   
 11   9  11  1   
 12   9  12  1   
 13  12  13  1   
 14  12  14  1   
 15  12  15  1   
 16  15  16  1   
 17  15  20  1   
 18  16  17  1   
 19  16  18  1   
 20  16  19  1   
 21  20  21  1   
 22  20  22  1   
 23  20  23  1   
 24  23  24  1   
 25  23  25  1   
 26  23  26  1   
 27  25  34  1   
 28  26  27  1   
 29  26  28  1   
 30  26  30  1   
 31  28  29  1   
 32  30  31  1   
 33  30  32  1   
 34  30  34  1   
 35  32  33  1   
 36  34  35  1   
 37  34  51  1   
 38  37  38  2   
 39  37  43  1   
 40  38  39  1   
 41  38  40  1   
 42  40  41  2   
 43  41  42  1   
 44  41  51  1   
 45  42  43  1   
 46  42  47  2   
 47  43  44  2   
 48  44  45  1   
 49  44  46  1   
 50  47  48  1   
 51  48  49  1   
 52  48  50  1   
 53  48  51  1   
@<TRIPOS>SUBSTRUCTURE
  1 SAM  25 GROUP 4 B **** 0

# MOE 2022.02 (io_trps.svl 2020.11)
