@<TRIPOS>MOLECULE
4LG1.C
51 53 1 0 0 
SMALL
USER_CHARGES


@<TRIPOS>ATOM
  1 N      -34.4010    32.3170    40.3620 N.4   1 SAM  -0.8530 
  2 H1     -33.5079    32.6035    40.7367 H     1 SAM   0.4500 
  3 H2     -34.6734    31.4371    40.7764 H     1 SAM   0.4500 
  4 H3     -35.0959    33.0186    40.5743 H     1 SAM   0.4500 
  5 CA     -34.2940    32.1610    38.9180 C.3   1 SAM   0.3170 
  6 HA     -35.2749    31.8527    38.5564 H     1 SAM   0.0800 
  7 C      -33.2820    31.1100    38.5710 C.2   1 SAM   0.9060 
  8 O      -32.3930    30.8290    39.4060 O.co2 1 SAM  -0.9000 
  9 CB     -33.9170    33.4830    38.2290 C.3   1 SAM  -0.1600 
 10 HB1    -34.6853    34.2173    38.4712 H     1 SAM   0.0800 
 11 HB2    -33.9074    33.3085    37.1531 H     1 SAM   0.0800 
 12 CG     -32.5600    34.0760    38.6210 C.3   1 SAM  -0.1525 
 13 HG1    -31.7888    33.3285    38.4349 H     1 SAM   0.0800 
 14 HG2    -32.5821    34.3184    39.6835 H     1 SAM   0.0800 
 15 SD     -32.1710    35.4700    37.7630 S.3   1 SAM   0.9775 
 16 CE     -30.5320    35.4840    37.5130 C.3   1 SAM  -0.2325 
 17 HE1    -30.2442    34.6019    36.9411 H     1 SAM   0.0800 
 18 HE2    -30.0178    35.4776    38.4741 H     1 SAM   0.0800 
 19 HE3    -30.2565    36.3817    36.9595 H     1 SAM   0.0800 
 20 C5'    -32.5050    36.8610    38.6460 C.3   1 SAM  -0.1525 
 21 H5'1   -32.0701    37.7118    38.1215 H     1 SAM   0.0800 
 22 H5'2   -32.0405    36.7630    39.6272 H     1 SAM   0.0800 
 23 C4'    -33.9960    37.1320    38.8460 C.3   1 SAM   0.2000 
 24 H4'    -34.4655    36.2006    39.1624 H     1 SAM   0.0800 
 25 O4'    -34.1600    38.1690    39.8350 O.3   1 SAM  -0.5600 
 26 C3'    -34.6520    37.6140    37.5540 C.3   1 SAM   0.2000 
 27 H3'    -34.0219    37.4424    36.6813 H     1 SAM   0.0800 
 28 O3'    -35.8710    36.9110    37.3060 O.3   1 SAM  -0.6800 
 29 H3'    -36.2581    37.2744    36.5062 H     1 SAM   0.4000 
 30 C2'    -34.9210    39.0890    37.7960 C.3   1 SAM   0.2000 
 31 H2'    -34.1341    39.7227    37.3869 H     1 SAM   0.0800 
 32 O2'    -36.1090    39.5680    37.1540 O.3   1 SAM  -0.6800 
 33 H2'    -36.8452    39.0433    37.4770 H     1 SAM   0.4000 
 34 C1'    -35.0640    39.1450    39.3190 C.3   1 SAM   0.5691 
 35 H1'    -36.0792    38.9194    39.6454 H     1 SAM   0.0800 
 36 OXT    -33.3310    30.5500    37.4490 O.co2 1 SAM  -0.9000 
 37 N1     -36.9090    43.0180    42.2650 N.2   1 SAM  -0.6610 
 38 C2     -37.4290    41.7990    42.0000 C.2   1 SAM   0.6010 
 39 H2     -38.3793    41.5353    42.4402 H     1 SAM   0.0600 
 40 N3     -36.8120    40.8990    41.2100 N.2   1 SAM  -0.6610 
 41 C4     -35.6270    41.1800    40.6300 C.2   1 SAM   0.5000 
 42 C5     -34.9980    42.4800    40.8780 C.2   1 SAM   0.4500 
 43 C6     -35.7200    43.4170    41.7540 C.2   1 SAM   0.6110 
 44 N6     -35.1720    44.6340    42.0040 N.2   1 SAM  -0.2000 
 45 H62    -35.6522    45.2907    42.6025 H     1 SAM   0.4000 
 46 H61    -34.2842    44.8825    41.5914 H     1 SAM   0.4000 
 47 N7     -33.8420    42.5010    40.1920 N.2   1 SAM  -0.6960 
 48 C8     -33.7250    41.3010    39.5600 C.3   1 SAM   0.4551 
 49 H81    -32.8196    40.8013    39.9044 H     1 SAM   0.0800 
 50 H82    -33.6617    41.4669    38.4846 H     1 SAM   0.0800 
 51 N9     -34.7950    40.5170    39.8270 N.pl3 1 SAM  -0.7882 
@<TRIPOS>BOND
  1   1   2  1   
  2   1   3  1   
  3   1   4  1   
  4   1   5  1   
  5   5   6  1   
  6   5   7  1   
  7   5   9  1   
  8   7   8  ar  
  9   7  36  ar  
 10   9  10  1   
 11   9  11  1   
 12   9  12  1   
 13  12  13  1   
 14  12  14  1   
 15  12  15  1   
 16  15  16  1   
 17  15  20  1   
 18  16  17  1   
 19  16  18  1   
 20  16  19  1   
 21  20  21  1   
 22  20  22  1   
 23  20  23  1   
 24  23  24  1   
 25  23  25  1   
 26  23  26  1   
 27  25  34  1   
 28  26  27  1   
 29  26  28  1   
 30  26  30  1   
 31  28  29  1   
 32  30  31  1   
 33  30  32  1   
 34  30  34  1   
 35  32  33  1   
 36  34  35  1   
 37  34  51  1   
 38  37  38  2   
 39  37  43  1   
 40  38  39  1   
 41  38  40  1   
 42  40  41  2   
 43  41  42  1   
 44  41  51  1   
 45  42  43  1   
 46  42  47  2   
 47  43  44  2   
 48  44  45  1   
 49  44  46  1   
 50  47  48  1   
 51  48  49  1   
 52  48  50  1   
 53  48  51  1   
@<TRIPOS>SUBSTRUCTURE
  1 SAM  25 GROUP 4 C **** 0

# MOE 2022.02 (io_trps.svl 2020.11)
