# created with PyMOL 2.5.0
@<TRIPOS>MOLECULE
4LG1
27 29 1                 
SMALL
USER_CHARGES
@<TRIPOS>ATOM
1	   N	-2.291	-2.730	24.684	N.3	1	SAM301	0.000	
2	  CA	-1.303	-2.915	25.737	C.3	1	SAM301	0.000	
3	   C	0.022	-3.368	25.158	C.2	1	SAM301	0.000	
4	   O	-0.001	-3.936	24.035	O.co2	1	SAM301	0.000	
5	  CB	-1.869	-3.915	26.751	C.3	1	SAM301	0.000	
6	  CG	-2.167	-5.287	26.112	C.3	1	SAM301	0.000	
7	  SD	-2.648	-6.467	27.213	S.3	1	SAM301	0.000	
8	  CE	-2.026	-7.945	26.753	C.3	1	SAM301	0.000	
9	 C5'	-4.319	-6.603	27.216	C.3	1	SAM301	0.000	
10	 C4'	-5.056	-5.383	27.777	C.3	1	SAM301	0.000	
11	 O4'	-6.465	-5.495	27.504	O.3	1	SAM301	0.000	
12	 C3'	-4.923	-5.264	29.294	C.3	1	SAM301	0.000	
13	 O3'	-4.567	-3.936	29.663	O.3	1	SAM301	0.000	
14	 C2'	-6.284	-5.634	29.844	C.3	1	SAM301	0.000	
15	 O2'	-6.595	-5.006	31.097	O.3	1	SAM301	0.000	
16	 C1'	-7.209	-5.208	28.701	C.3	1	SAM301	0.000	
17	 OXT	1.111	-3.178	25.782	O.co2	1	SAM301	0.000	
18	  N1	-12.462	-4.957	28.575	N.2	1	SAM301	0.000	
19	  C2	-11.540	-3.981	28.501	C.2	1	SAM301	0.000	
20	  N3	-10.214	-4.186	28.547	N.2	1	SAM301	0.000	
21	  C4	-9.710	-5.424	28.668	C.2	1	SAM301	0.000	
22	  C5	-10.647	-6.544	28.764	C.2	1	SAM301	0.000	
23	  C6	-12.090	-6.250	28.712	C.2	1	SAM301	0.000	
24	  N6	-12.979	-7.271	28.787	N.pl3	1	SAM301	0.000	
25	  N7	-9.908	-7.655	28.875	N.2	1	SAM301	0.000	
26	  C8	-8.615	-7.281	28.859	C.2	1	SAM301	0.000	
27	  N9	-8.491	-5.949	28.743	N.2	1	SAM301	0.000	
@<TRIPOS>BOND
1 1 2 1
2 2 3 1
3 2 5 1
4 3 4 ar
5 3 17 ar
6 5 6 1
7 6 7 1
8 7 8 1
9 7 9 1
10 9 10 1
11 10 11 1
12 10 12 1
13 11 16 1
14 12 13 1
15 12 14 1
16 14 15 1
17 14 16 1
18 16 27 1
19 18 19 ar
20 18 23 ar
21 19 20 ar
22 20 21 ar
23 21 22 ar
24 21 27 ar
25 22 23 ar
26 22 25 ar
27 23 24 1
28 25 26 ar
29 26 27 ar
@<TRIPOS>SUBSTRUCTURE
1	SAM301	1	GROUP	1 A	SAM
