# created with PyMOL 2.4.0
@<TRIPOS>MOLECULE
temp
50 52 1                 
SMALL
USER_CHARGES
@<TRIPOS>ATOM
1	   N	-34.401	32.317	40.362	N.4	1	SAM1	0.000	
2	  CA	-34.294	32.161	38.918	C.3	1	SAM1	0.000	
3	   C	-33.282	31.110	38.571	C.2	1	SAM1	0.000	
4	   O	-32.393	30.829	39.406	O.co2	1	SAM1	0.000	
5	  CB	-33.917	33.483	38.229	C.3	1	SAM1	0.000	
6	  CG	-32.560	34.076	38.621	C.3	1	SAM1	0.000	
7	  SD	-32.171	35.470	37.763	S.3	1	SAM1	0.000	
8	  CE	-30.532	35.484	37.513	C.3	1	SAM1	0.000	
9	 C5'	-32.505	36.861	38.646	C.3	1	SAM1	0.000	
10	 C4'	-33.996	37.132	38.846	C.3	1	SAM1	0.000	
11	 O4'	-34.160	38.169	39.835	O.3	1	SAM1	0.000	
12	 C3'	-34.652	37.614	37.554	C.3	1	SAM1	0.000	
13	 O3'	-35.871	36.911	37.306	O.3	1	SAM1	0.000	
14	 C2'	-34.921	39.089	37.796	C.3	1	SAM1	0.000	
15	 O2'	-36.109	39.568	37.154	O.3	1	SAM1	0.000	
16	 C1'	-35.064	39.145	39.319	C.3	1	SAM1	0.000	
17	 OXT	-33.331	30.550	37.449	O.co2	1	SAM1	0.000	
18	  N1	-36.909	43.018	42.265	N.2	1	SAM1	0.000	
19	  C2	-37.429	41.799	42.000	C.2	1	SAM1	0.000	
20	  N3	-36.812	40.899	41.210	N.2	1	SAM1	0.000	
21	  C4	-35.627	41.180	40.630	C.2	1	SAM1	0.000	
22	  C5	-34.998	42.480	40.878	C.2	1	SAM1	0.000	
23	  C6	-35.720	43.417	41.754	C.2	1	SAM1	0.000	
24	  N6	-35.172	44.634	42.004	N.pl3	1	SAM1	0.000	
25	  N7	-33.842	42.501	40.192	N.2	1	SAM1	0.000	
26	  C8	-33.725	41.301	39.560	C.2	1	SAM1	0.000	
27	  N9	-34.795	40.517	39.827	N.2	1	SAM1	0.000	
28	  HA	-35.275	31.853	38.556	 H	1	SAM1	0.000	
29	 HB1	-34.685	34.217	38.471	 H	1	SAM1	0.000	
30	 HB2	-33.907	33.308	37.153	 H	1	SAM1	0.000	
31	 HG1	-31.789	33.328	38.435	 H	1	SAM1	0.000	
32	 HG2	-32.582	34.318	39.683	 H	1	SAM1	0.000	
33	 HE1	-30.244	34.602	36.941	 H	1	SAM1	0.000	
34	 HE2	-30.018	35.478	38.474	 H	1	SAM1	0.000	
35	 HE3	-30.257	36.382	36.959	 H	1	SAM1	0.000	
36	  H1	-33.508	32.604	40.737	 H	1	SAM1	0.000	
37	  H2	-34.673	31.437	40.776	 H	1	SAM1	0.000	
38	  H2	-38.379	41.535	42.440	 H	1	SAM1	0.000	
39	  H3	-35.096	33.019	40.574	 H	1	SAM1	0.000	
40	  H8	-32.894	41.015	38.933	 H	1	SAM1	0.000	
41	 H1'	-36.079	38.919	39.645	 H	1	SAM1	0.000	
42	 H2'	-34.134	39.723	37.387	 H	1	SAM1	0.000	
43	 H2'	-36.845	39.043	37.477	 H	1	SAM1	0.000	
44	 H3'	-34.022	37.442	36.681	 H	1	SAM1	0.000	
45	 H3'	-36.258	37.274	36.506	 H	1	SAM1	0.000	
46	 H4'	-34.465	36.201	39.162	 H	1	SAM1	0.000	
47	 H61	-34.284	44.882	41.591	 H	1	SAM1	0.000	
48	 H62	-35.652	45.291	42.603	 H	1	SAM1	0.000	
49	H5'1	-32.070	37.712	38.121	 H	1	SAM1	0.000	
50	H5'2	-32.041	36.763	39.627	 H	1	SAM1	0.000	
@<TRIPOS>BOND
1 1 2 1
2 1 36 1
3 1 37 1
4 1 39 1
5 2 3 1
6 2 5 1
7 2 28 1
8 3 4 ar
9 3 17 ar
10 5 6 1
11 5 29 1
12 5 30 1
13 6 7 1
14 6 31 1
15 6 32 1
16 7 8 1
17 7 9 1
18 8 33 1
19 8 34 1
20 8 35 1
21 9 10 1
22 9 49 1
23 9 50 1
24 10 11 1
25 10 12 1
26 10 46 1
27 11 16 1
28 12 13 1
29 12 14 1
30 12 44 1
31 13 45 1
32 14 15 1
33 14 16 1
34 14 42 1
35 15 43 1
36 16 27 1
37 16 41 1
38 18 19 ar
39 18 23 ar
40 19 20 ar
41 19 38 1
42 20 21 ar
43 21 22 ar
44 21 27 ar
45 22 23 ar
46 22 25 ar
47 23 24 1
48 24 47 1
49 24 48 1
50 25 26 ar
51 26 27 ar
52 26 40 1
@<TRIPOS>SUBSTRUCTURE
1	SAM1	1	GROUP	1 C	SAM
