@<TRIPOS>MOLECULE
4LG1.A
51 53 1 0 0 
SMALL
USER_CHARGES


@<TRIPOS>ATOM
  1 N       -2.2910    -2.7300    24.6840 N.4   1 SAM  -0.8530 
  2 H1      -2.4627    -3.6129    24.2246 H     1 SAM   0.4500 
  3 H2      -1.9442    -2.0619    24.0106 H     1 SAM   0.4500 
  4 H3      -3.1515    -2.3868    25.0863 H     1 SAM   0.4500 
  5 CA      -1.3030    -2.9150    25.7370 C.3   1 SAM   0.3170 
  6 HA      -1.1043    -1.9713    26.2450 H     1 SAM   0.0800 
  7 C        0.0220    -3.3680    25.1580 C.2   1 SAM   0.9060 
  8 O       -0.0010    -3.9360    24.0350 O.co2 1 SAM  -0.9000 
  9 CB      -1.8690    -3.9150    26.7510 C.3   1 SAM  -0.1600 
 10 HB1     -2.7938    -3.5115    27.1633 H     1 SAM   0.0800 
 11 HB2     -1.1429    -4.0513    27.5525 H     1 SAM   0.0800 
 12 CG      -2.1670    -5.2870    26.1120 C.3   1 SAM  -0.1525 
 13 HG1     -1.2639    -5.6345    25.6102 H     1 SAM   0.0800 
 14 HG2     -2.9632    -5.1577    25.3789 H     1 SAM   0.0800 
 15 SD      -2.6480    -6.4670    27.2130 S.3   1 SAM   0.9775 
 16 CE      -2.0260    -7.9450    26.7530 C.3   1 SAM  -0.2325 
 17 HE1     -0.9373    -7.8929    26.7401 H     1 SAM   0.0800 
 18 HE2     -2.3895    -8.1981    25.7570 H     1 SAM   0.0800 
 19 HE3     -2.3448    -8.7097    27.4613 H     1 SAM   0.0800 
 20 C5'     -4.3190    -6.6030    27.2160 C.3   1 SAM  -0.1525 
 21 H5'1    -4.5886    -7.4702    27.8188 H     1 SAM   0.0800 
 22 H5'2    -4.6496    -6.7575    26.1889 H     1 SAM   0.0800 
 23 C4'     -5.0560    -5.3830    27.7770 C.3   1 SAM   0.2000 
 24 H4'     -4.6071    -4.5123    27.2989 H     1 SAM   0.0800 
 25 O4'     -6.4650    -5.4950    27.5040 O.3   1 SAM  -0.5600 
 26 C3'     -4.9230    -5.2640    29.2940 C.3   1 SAM   0.2000 
 27 H3'     -4.1408    -5.9129    29.6879 H     1 SAM   0.0800 
 28 O3'     -4.5670    -3.9360    29.6630 O.3   1 SAM  -0.6800 
 29 H3'     -4.5244    -3.9026    30.6215 H     1 SAM   0.4000 
 30 C2'     -6.2840    -5.6340    29.8440 C.3   1 SAM   0.2000 
 31 H2'     -6.3699    -6.6889    30.1046 H     1 SAM   0.0800 
 32 O2'     -6.5950    -5.0060    31.0970 O.3   1 SAM  -0.6800 
 33 H2'     -7.4820    -5.2767    31.3451 H     1 SAM   0.4000 
 34 C1'     -7.2090    -5.2080    28.7010 C.3   1 SAM   0.5691 
 35 H1'     -7.4846    -4.1552    28.7626 H     1 SAM   0.0800 
 36 OXT      1.1110    -3.1780    25.7820 O.co2 1 SAM  -0.9000 
 37 N1     -12.4620    -4.9570    28.5750 N.2   1 SAM  -0.6610 
 38 C2     -11.5400    -3.9810    28.5010 C.2   1 SAM   0.6010 
 39 H2     -11.8895    -2.9643    28.3977 H     1 SAM   0.0600 
 40 N3     -10.2140    -4.1860    28.5470 N.2   1 SAM  -0.6610 
 41 C4      -9.7100    -5.4240    28.6680 C.2   1 SAM   0.5000 
 42 C5     -10.6470    -6.5440    28.7640 C.2   1 SAM   0.4500 
 43 C6     -12.0900    -6.2500    28.7120 C.2   1 SAM   0.6110 
 44 N6     -12.9790    -7.2710    28.7870 N.2   1 SAM  -0.2000 
 45 H62    -13.9704    -7.0810    28.7523 H     1 SAM   0.4000 
 46 H61    -12.6499    -8.2216    28.8775 H     1 SAM   0.4000 
 47 N7      -9.9080    -7.6550    28.8750 N.2   1 SAM  -0.6960 
 48 C8      -8.6150    -7.2810    28.8590 C.3   1 SAM   0.4551 
 49 H81     -8.1184    -7.7582    28.0142 H     1 SAM   0.0800 
 50 H82     -8.1417    -7.6016    29.7871 H     1 SAM   0.0800 
 51 N9      -8.4910    -5.9490    28.7430 N.pl3 1 SAM  -0.7882 
@<TRIPOS>BOND
  1   1   2  1   
  2   1   3  1   
  3   1   4  1   
  4   1   5  1   
  5   5   6  1   
  6   5   7  1   
  7   5   9  1   
  8   7   8  ar  
  9   7  36  ar  
 10   9  10  1   
 11   9  11  1   
 12   9  12  1   
 13  12  13  1   
 14  12  14  1   
 15  12  15  1   
 16  15  16  1   
 17  15  20  1   
 18  16  17  1   
 19  16  18  1   
 20  16  19  1   
 21  20  21  1   
 22  20  22  1   
 23  20  23  1   
 24  23  24  1   
 25  23  25  1   
 26  23  26  1   
 27  25  34  1   
 28  26  27  1   
 29  26  28  1   
 30  26  30  1   
 31  28  29  1   
 32  30  31  1   
 33  30  32  1   
 34  30  34  1   
 35  32  33  1   
 36  34  35  1   
 37  34  51  1   
 38  37  38  2   
 39  37  43  1   
 40  38  39  1   
 41  38  40  1   
 42  40  41  2   
 43  41  42  1   
 44  41  51  1   
 45  42  43  1   
 46  42  47  2   
 47  43  44  2   
 48  44  45  1   
 49  44  46  1   
 50  47  48  1   
 51  48  49  1   
 52  48  50  1   
 53  48  51  1   
@<TRIPOS>SUBSTRUCTURE
  1 SAM  25 GROUP 4 A **** 0

# MOE 2022.02 (io_trps.svl 2020.11)
