# created with PyMOL 2.5.0
@<TRIPOS>MOLECULE
4LG1
27 29 1                 
SMALL
USER_CHARGES
@<TRIPOS>ATOM
1	   N	-25.079	32.207	2.149	N.3	1	SAM301	0.000	
2	  CA	-25.363	32.735	0.817	C.3	1	SAM301	0.000	
3	   C	-24.628	34.033	0.591	C.2	1	SAM301	0.000	
4	   O	-24.415	34.786	1.577	O.co2	1	SAM301	0.000	
5	  CB	-26.876	32.916	0.614	C.3	1	SAM301	0.000	
6	  CG	-27.572	33.926	1.521	C.3	1	SAM301	0.000	
7	  SD	-29.203	34.140	1.082	S.3	1	SAM301	0.000	
8	  CE	-29.634	35.703	1.373	C.3	1	SAM301	0.000	
9	 C5'	-30.158	33.159	2.071	C.3	1	SAM301	0.000	
10	 C4'	-30.063	31.645	1.836	C.3	1	SAM301	0.000	
11	 O4'	-30.771	30.919	2.882	O.3	1	SAM301	0.000	
12	 C3'	-30.648	31.213	0.500	C.3	1	SAM301	0.000	
13	 O3'	-29.762	30.348	-0.224	O.3	1	SAM301	0.000	
14	 C2'	-31.916	30.479	0.877	C.3	1	SAM301	0.000	
15	 O2'	-32.312	29.450	-0.035	O.3	1	SAM301	0.000	
16	 C1'	-31.546	29.920	2.246	C.3	1	SAM301	0.000	
17	 OXT	-24.263	34.324	-0.569	O.co2	1	SAM301	0.000	
18	  N1	-34.005	26.573	5.331	N.2	1	SAM301	0.000	
19	  C2	-32.833	26.445	4.681	C.2	1	SAM301	0.000	
20	  N3	-32.304	27.414	3.894	N.2	1	SAM301	0.000	
21	  C4	-32.962	28.567	3.725	C.2	1	SAM301	0.000	
22	  C5	-34.243	28.788	4.397	C.2	1	SAM301	0.000	
23	  C6	-34.750	27.704	5.232	C.2	1	SAM301	0.000	
24	  N6	-35.926	27.918	5.844	N.pl3	1	SAM301	0.000	
25	  N7	-34.679	30.025	4.090	N.2	1	SAM301	0.000	
26	  C8	-33.735	30.562	3.277	C.2	1	SAM301	0.000	
27	  N9	-32.732	29.683	3.065	N.2	1	SAM301	0.000	
@<TRIPOS>BOND
1 1 2 1
2 2 3 1
3 2 5 1
4 3 4 ar
5 3 17 ar
6 5 6 1
7 6 7 1
8 7 8 1
9 7 9 1
10 9 10 1
11 10 11 1
12 10 12 1
13 11 16 1
14 12 13 1
15 12 14 1
16 14 15 1
17 14 16 1
18 16 27 1
19 18 19 ar
20 18 23 ar
21 19 20 ar
22 20 21 ar
23 21 22 ar
24 21 27 ar
25 22 23 ar
26 22 25 ar
27 23 24 1
28 25 26 ar
29 26 27 ar
@<TRIPOS>SUBSTRUCTURE
1	SAM301	1	GROUP	1 B	SAM
