# created with PyMOL 2.5.0
@<TRIPOS>MOLECULE
4LG1
27 29 1                 
SMALL
USER_CHARGES
@<TRIPOS>ATOM
1	   N	-34.401	32.317	40.362	N.3	1	SAM301	0.000	
2	  CA	-34.294	32.161	38.918	C.3	1	SAM301	0.000	
3	   C	-33.282	31.110	38.571	C.2	1	SAM301	0.000	
4	   O	-32.393	30.829	39.406	O.co2	1	SAM301	0.000	
5	  CB	-33.917	33.483	38.229	C.3	1	SAM301	0.000	
6	  CG	-32.560	34.076	38.621	C.3	1	SAM301	0.000	
7	  SD	-32.171	35.470	37.763	S.3	1	SAM301	0.000	
8	  CE	-30.532	35.484	37.513	C.3	1	SAM301	0.000	
9	 C5'	-32.505	36.861	38.646	C.3	1	SAM301	0.000	
10	 C4'	-33.996	37.132	38.846	C.3	1	SAM301	0.000	
11	 O4'	-34.160	38.169	39.835	O.3	1	SAM301	0.000	
12	 C3'	-34.652	37.614	37.554	C.3	1	SAM301	0.000	
13	 O3'	-35.871	36.911	37.306	O.3	1	SAM301	0.000	
14	 C2'	-34.921	39.089	37.796	C.3	1	SAM301	0.000	
15	 O2'	-36.109	39.568	37.154	O.3	1	SAM301	0.000	
16	 C1'	-35.064	39.145	39.319	C.3	1	SAM301	0.000	
17	 OXT	-33.331	30.550	37.449	O.co2	1	SAM301	0.000	
18	  N1	-36.909	43.018	42.265	N.2	1	SAM301	0.000	
19	  C2	-37.429	41.799	42.000	C.2	1	SAM301	0.000	
20	  N3	-36.812	40.899	41.210	N.2	1	SAM301	0.000	
21	  C4	-35.627	41.180	40.630	C.2	1	SAM301	0.000	
22	  C5	-34.998	42.480	40.878	C.2	1	SAM301	0.000	
23	  C6	-35.720	43.417	41.754	C.2	1	SAM301	0.000	
24	  N6	-35.172	44.634	42.004	N.pl3	1	SAM301	0.000	
25	  N7	-33.842	42.501	40.192	N.2	1	SAM301	0.000	
26	  C8	-33.725	41.301	39.560	C.2	1	SAM301	0.000	
27	  N9	-34.795	40.517	39.827	N.2	1	SAM301	0.000	
@<TRIPOS>BOND
1 1 2 1
2 2 3 1
3 2 5 1
4 3 4 ar
5 3 17 ar
6 5 6 1
7 6 7 1
8 7 8 1
9 7 9 1
10 9 10 1
11 10 11 1
12 10 12 1
13 11 16 1
14 12 13 1
15 12 14 1
16 14 15 1
17 14 16 1
18 16 27 1
19 18 19 ar
20 18 23 ar
21 19 20 ar
22 20 21 ar
23 21 22 ar
24 21 27 ar
25 22 23 ar
26 22 25 ar
27 23 24 1
28 25 26 ar
29 26 27 ar
@<TRIPOS>SUBSTRUCTURE
1	SAM301	1	GROUP	1 C	SAM
