# created with PyMOL 2.4.0
@<TRIPOS>MOLECULE
temp
50 52 1                 
SMALL
USER_CHARGES
@<TRIPOS>ATOM
1	   N	-2.291	-2.730	24.684	N.4	1	SAM1	0.000	
2	  CA	-1.303	-2.915	25.737	C.3	1	SAM1	0.000	
3	   C	0.022	-3.368	25.158	C.2	1	SAM1	0.000	
4	   O	-0.001	-3.936	24.035	O.co2	1	SAM1	0.000	
5	  CB	-1.869	-3.915	26.751	C.3	1	SAM1	0.000	
6	  CG	-2.167	-5.287	26.112	C.3	1	SAM1	0.000	
7	  SD	-2.648	-6.467	27.213	S.3	1	SAM1	0.000	
8	  CE	-2.026	-7.945	26.753	C.3	1	SAM1	0.000	
9	 C5'	-4.319	-6.603	27.216	C.3	1	SAM1	0.000	
10	 C4'	-5.056	-5.383	27.777	C.3	1	SAM1	0.000	
11	 O4'	-6.465	-5.495	27.504	O.3	1	SAM1	0.000	
12	 C3'	-4.923	-5.264	29.294	C.3	1	SAM1	0.000	
13	 O3'	-4.567	-3.936	29.663	O.3	1	SAM1	0.000	
14	 C2'	-6.284	-5.634	29.844	C.3	1	SAM1	0.000	
15	 O2'	-6.595	-5.006	31.097	O.3	1	SAM1	0.000	
16	 C1'	-7.209	-5.208	28.701	C.3	1	SAM1	0.000	
17	 OXT	1.111	-3.178	25.782	O.co2	1	SAM1	0.000	
18	  N1	-12.462	-4.957	28.575	N.2	1	SAM1	0.000	
19	  C2	-11.540	-3.981	28.501	C.2	1	SAM1	0.000	
20	  N3	-10.214	-4.186	28.547	N.2	1	SAM1	0.000	
21	  C4	-9.710	-5.424	28.668	C.2	1	SAM1	0.000	
22	  C5	-10.647	-6.544	28.764	C.2	1	SAM1	0.000	
23	  C6	-12.090	-6.250	28.712	C.2	1	SAM1	0.000	
24	  N6	-12.979	-7.271	28.787	N.pl3	1	SAM1	0.000	
25	  N7	-9.908	-7.655	28.875	N.2	1	SAM1	0.000	
26	  C8	-8.615	-7.281	28.859	C.2	1	SAM1	0.000	
27	  N9	-8.491	-5.949	28.743	N.2	1	SAM1	0.000	
28	  HA	-1.104	-1.971	26.245	 H	1	SAM1	0.000	
29	 HB1	-2.794	-3.511	27.163	 H	1	SAM1	0.000	
30	 HB2	-1.143	-4.051	27.552	 H	1	SAM1	0.000	
31	 HG1	-1.264	-5.635	25.610	 H	1	SAM1	0.000	
32	 HG2	-2.963	-5.158	25.379	 H	1	SAM1	0.000	
33	 HE1	-0.937	-7.893	26.740	 H	1	SAM1	0.000	
34	 HE2	-2.389	-8.198	25.757	 H	1	SAM1	0.000	
35	 HE3	-2.345	-8.710	27.461	 H	1	SAM1	0.000	
36	  H1	-2.463	-3.613	24.225	 H	1	SAM1	0.000	
37	  H2	-1.944	-2.062	24.011	 H	1	SAM1	0.000	
38	  H2	-11.889	-2.964	28.398	 H	1	SAM1	0.000	
39	  H3	-3.151	-2.387	25.086	 H	1	SAM1	0.000	
40	  H8	-7.783	-7.966	28.930	 H	1	SAM1	0.000	
41	 H1'	-7.485	-4.155	28.763	 H	1	SAM1	0.000	
42	 H2'	-6.370	-6.689	30.105	 H	1	SAM1	0.000	
43	 H2'	-5.947	-5.304	31.740	 H	1	SAM1	0.000	
44	 H3'	-4.141	-5.913	29.688	 H	1	SAM1	0.000	
45	 H3'	-4.524	-3.903	30.622	 H	1	SAM1	0.000	
46	 H4'	-4.607	-4.512	27.299	 H	1	SAM1	0.000	
47	 H61	-12.650	-8.222	28.878	 H	1	SAM1	0.000	
48	 H62	-13.970	-7.081	28.752	 H	1	SAM1	0.000	
49	H5'1	-4.589	-7.470	27.819	 H	1	SAM1	0.000	
50	H5'2	-4.650	-6.758	26.189	 H	1	SAM1	0.000	
@<TRIPOS>BOND
1 1 2 1
2 1 36 1
3 1 37 1
4 1 39 1
5 2 3 1
6 2 5 1
7 2 28 1
8 3 4 ar
9 3 17 ar
10 5 6 1
11 5 29 1
12 5 30 1
13 6 7 1
14 6 31 1
15 6 32 1
16 7 8 1
17 7 9 1
18 8 33 1
19 8 34 1
20 8 35 1
21 9 10 1
22 9 49 1
23 9 50 1
24 10 11 1
25 10 12 1
26 10 46 1
27 11 16 1
28 12 13 1
29 12 14 1
30 12 44 1
31 13 45 1
32 14 15 1
33 14 16 1
34 14 42 1
35 15 43 1
36 16 27 1
37 16 41 1
38 18 19 ar
39 18 23 ar
40 19 20 ar
41 19 38 1
42 20 21 ar
43 21 22 ar
44 21 27 ar
45 22 23 ar
46 22 25 ar
47 23 24 1
48 24 47 1
49 24 48 1
50 25 26 ar
51 26 27 ar
52 26 40 1
@<TRIPOS>SUBSTRUCTURE
1	SAM1	1	GROUP	1 A	SAM
