# created with PyMOL 2.5.0
@<TRIPOS>MOLECULE
4J83
27 29 1                 
SMALL
USER_CHARGES
@<TRIPOS>ATOM
1	   N	54.012	-20.111	-6.685	N.3	1	SAM401	0.000	
2	  CA	52.903	-19.335	-6.127	C.3	1	SAM401	0.000	
3	   C	52.867	-19.420	-4.609	C.2	1	SAM401	0.000	
4	   O	53.753	-20.077	-4.008	O.co2	1	SAM401	0.000	
5	  CB	51.562	-19.784	-6.769	C.3	1	SAM401	0.000	
6	  CG	51.305	-19.080	-8.107	C.3	1	SAM401	0.000	
7	  SD	50.920	-17.421	-7.979	S.3	1	SAM401	0.000	
8	  CE	49.528	-17.178	-8.904	C.3	1	SAM401	0.000	
9	 C5'	52.007	-16.539	-8.940	C.3	1	SAM401	0.000	
10	 C4'	53.498	-16.552	-8.549	C.3	1	SAM401	0.000	
11	 O4'	54.100	-17.827	-8.696	O.3	1	SAM401	0.000	
12	 C3'	54.355	-15.640	-9.433	C.3	1	SAM401	0.000	
13	 O3'	54.346	-14.325	-8.886	O.3	1	SAM401	0.000	
14	 C2'	55.742	-16.267	-9.426	C.3	1	SAM401	0.000	
15	 O2'	56.428	-15.960	-8.203	O.3	1	SAM401	0.000	
16	 C1'	55.418	-17.730	-9.268	C.3	1	SAM401	0.000	
17	 OXT	51.906	-18.878	-3.972	O.co2	1	SAM401	0.000	
18	  N1	58.526	-19.831	-12.900	N.2	1	SAM401	0.000	
19	  C2	58.834	-19.129	-11.790	C.2	1	SAM401	0.000	
20	  N3	57.926	-18.597	-10.947	N.2	1	SAM401	0.000	
21	  C4	56.594	-18.829	-11.173	C.2	1	SAM401	0.000	
22	  C5	56.183	-19.608	-12.336	C.2	1	SAM401	0.000	
23	  C6	57.240	-20.128	-13.229	C.2	1	SAM401	0.000	
24	  N6	56.928	-20.850	-14.341	N.pl3	1	SAM401	0.000	
25	  N7	54.828	-19.663	-12.323	N.2	1	SAM401	0.000	
26	  C8	54.415	-18.968	-11.224	C.2	1	SAM401	0.000	
27	  N9	55.469	-18.472	-10.546	N.2	1	SAM401	0.000	
@<TRIPOS>BOND
1 1 2 1
2 2 3 1
3 2 5 1
4 3 4 ar
5 3 17 ar
6 5 6 1
7 6 7 1
8 7 8 1
9 7 9 1
10 9 10 1
11 10 11 1
12 10 12 1
13 11 16 1
14 12 13 1
15 12 14 1
16 14 15 1
17 14 16 1
18 16 27 1
19 18 19 ar
20 18 23 ar
21 19 20 ar
22 20 21 ar
23 21 22 ar
24 21 27 ar
25 22 23 ar
26 22 25 ar
27 23 24 1
28 25 26 ar
29 26 27 ar
@<TRIPOS>SUBSTRUCTURE
1	SAM401	1	GROUP	1 A	SAM
