@<TRIPOS>MOLECULE
4J83.A
51 53 1 0 0 
SMALL
USER_CHARGES


@<TRIPOS>ATOM
  1 N       54.0120   -20.1110    -6.6850 N.4   1 SAM  -0.8530 
  2 H1      53.8823   -21.0885    -6.4666 H     1 SAM   0.4500 
  3 H2      54.8823   -19.7895    -6.2859 H     1 SAM   0.4500 
  4 H3      54.0365   -19.9903    -7.6875 H     1 SAM   0.4500 
  5 CA      52.9030   -19.3350    -6.1270 C.3   1 SAM   0.3170 
  6 HA      53.0587   -18.2843    -6.3715 H     1 SAM   0.0800 
  7 C       52.8670   -19.4200    -4.6090 C.2   1 SAM   0.9060 
  8 O       53.7530   -20.0770    -4.0080 O.co2 1 SAM  -0.9000 
  9 CB      51.5620   -19.7840    -6.7690 C.3   1 SAM  -0.1600 
 10 HB1     50.7472   -19.5483    -6.0845 H     1 SAM   0.0800 
 11 HB2     51.5949   -20.8604    -6.9377 H     1 SAM   0.0800 
 12 CG      51.3050   -19.0800    -8.1070 C.3   1 SAM  -0.1525 
 13 HG1     50.4747   -19.5839    -8.6017 H     1 SAM   0.0800 
 14 HG2     52.2028   -19.1739    -8.7179 H     1 SAM   0.0800 
 15 SD      50.9200   -17.4210    -7.9790 S.3   1 SAM   0.9775 
 16 CE      49.5280   -17.1780    -8.9040 C.3   1 SAM  -0.2325 
 17 HE1     48.6861   -17.6864    -8.4340 H     1 SAM   0.0800 
 18 HE2     49.6823   -17.5801    -9.9053 H     1 SAM   0.0800 
 19 HE3     49.3171   -16.1106    -8.9697 H     1 SAM   0.0800 
 20 C5'     52.0070   -16.5390    -8.9400 C.3   1 SAM  -0.1525 
 21 H5'1    51.6787   -15.4997    -8.9292 H     1 SAM   0.0800 
 22 H5'2    51.9350   -16.9322    -9.9541 H     1 SAM   0.0800 
 23 C4'     53.4980   -16.5520    -8.5490 C.3   1 SAM   0.2000 
 24 H4'     53.4794   -16.2231    -7.5100 H     1 SAM   0.0800 
 25 O4'     54.1000   -17.8270    -8.6960 O.3   1 SAM  -0.5600 
 26 C3'     54.3550   -15.6400    -9.4330 C.3   1 SAM   0.2000 
 27 H3'     53.9889   -15.5512   -10.4558 H     1 SAM   0.0800 
 28 O3'     54.3460   -14.3250    -8.8860 O.3   1 SAM  -0.6800 
 29 H3'     54.9248   -13.7820    -9.4261 H     1 SAM   0.4000 
 30 C2'     55.7420   -16.2670    -9.4260 C.3   1 SAM   0.2000 
 31 H2'     56.3296   -15.9541   -10.2891 H     1 SAM   0.0800 
 32 O2'     56.4280   -15.9600    -8.2030 O.3   1 SAM  -0.6800 
 33 H2'     56.5629   -15.0099    -8.1765 H     1 SAM   0.4000 
 34 C1'     55.4180   -17.7300    -9.2680 C.3   1 SAM   0.5691 
 35 H1'     56.1698   -18.1837    -8.6222 H     1 SAM   0.0800 
 36 OXT     51.9060   -18.8780    -3.9720 O.co2 1 SAM  -0.9000 
 37 N1      58.5260   -19.8310   -12.9000 N.2   1 SAM  -0.6610 
 38 C2      58.8340   -19.1290   -11.7900 C.2   1 SAM   0.6010 
 39 H2      59.8793   -18.9831   -11.5609 H     1 SAM   0.0600 
 40 N3      57.9260   -18.5970   -10.9470 N.2   1 SAM  -0.6610 
 41 C4      56.5940   -18.8290   -11.1730 C.2   1 SAM   0.5000 
 42 C5      56.1830   -19.6080   -12.3360 C.2   1 SAM   0.4500 
 43 C6      57.2400   -20.1280   -13.2290 C.2   1 SAM   0.6110 
 44 N6      56.9280   -20.8500   -14.3410 N.2   1 SAM  -0.2000 
 45 H62     57.6631   -21.1977   -14.9401 H     1 SAM   0.4000 
 46 H61     55.9616   -21.0377   -14.5665 H     1 SAM   0.4000 
 47 N7      54.8280   -19.6630   -12.3230 N.2   1 SAM  -0.6960 
 48 C8      54.4150   -18.9680   -11.2240 C.3   1 SAM   0.4551 
 49 H81     53.8518   -19.6345   -10.5708 H     1 SAM   0.0800 
 50 H82     53.7753   -18.1447   -11.5417 H     1 SAM   0.0800 
 51 N9      55.4690   -18.4720   -10.5460 N.pl3 1 SAM  -0.7882 
@<TRIPOS>BOND
  1   1   2  1   
  2   1   3  1   
  3   1   4  1   
  4   1   5  1   
  5   5   6  1   
  6   5   7  1   
  7   5   9  1   
  8   7   8  ar  
  9   7  36  ar  
 10   9  10  1   
 11   9  11  1   
 12   9  12  1   
 13  12  13  1   
 14  12  14  1   
 15  12  15  1   
 16  15  16  1   
 17  15  20  1   
 18  16  17  1   
 19  16  18  1   
 20  16  19  1   
 21  20  21  1   
 22  20  22  1   
 23  20  23  1   
 24  23  24  1   
 25  23  25  1   
 26  23  26  1   
 27  25  34  1   
 28  26  27  1   
 29  26  28  1   
 30  26  30  1   
 31  28  29  1   
 32  30  31  1   
 33  30  32  1   
 34  30  34  1   
 35  32  33  1   
 36  34  35  1   
 37  34  51  1   
 38  37  38  2   
 39  37  43  1   
 40  38  39  1   
 41  38  40  1   
 42  40  41  2   
 43  41  42  1   
 44  41  51  1   
 45  42  43  1   
 46  42  47  2   
 47  43  44  2   
 48  44  45  1   
 49  44  46  1   
 50  47  48  1   
 51  48  49  1   
 52  48  50  1   
 53  48  51  1   
@<TRIPOS>SUBSTRUCTURE
  1 SAM  25 GROUP 4 A **** 0

# MOE 2022.02 (io_trps.svl 2020.11)
