# created with PyMOL 2.4.0
@<TRIPOS>MOLECULE
temp
50 52 1                 
SMALL
USER_CHARGES
@<TRIPOS>ATOM
1	   N	54.012	-20.111	-6.685	N.4	1	SAM1	0.000	
2	  CA	52.903	-19.335	-6.127	C.3	1	SAM1	0.000	
3	   C	52.867	-19.420	-4.609	C.2	1	SAM1	0.000	
4	   O	53.753	-20.077	-4.008	O.co2	1	SAM1	0.000	
5	  CB	51.562	-19.784	-6.769	C.3	1	SAM1	0.000	
6	  CG	51.305	-19.080	-8.107	C.3	1	SAM1	0.000	
7	  SD	50.920	-17.421	-7.979	S.3	1	SAM1	0.000	
8	  CE	49.528	-17.178	-8.904	C.3	1	SAM1	0.000	
9	 C5'	52.007	-16.539	-8.940	C.3	1	SAM1	0.000	
10	 C4'	53.498	-16.552	-8.549	C.3	1	SAM1	0.000	
11	 O4'	54.100	-17.827	-8.696	O.3	1	SAM1	0.000	
12	 C3'	54.355	-15.640	-9.433	C.3	1	SAM1	0.000	
13	 O3'	54.346	-14.325	-8.886	O.3	1	SAM1	0.000	
14	 C2'	55.742	-16.267	-9.426	C.3	1	SAM1	0.000	
15	 O2'	56.428	-15.960	-8.203	O.3	1	SAM1	0.000	
16	 C1'	55.418	-17.730	-9.268	C.3	1	SAM1	0.000	
17	 OXT	51.906	-18.878	-3.972	O.co2	1	SAM1	0.000	
18	  N1	58.526	-19.831	-12.900	N.2	1	SAM1	0.000	
19	  C2	58.834	-19.129	-11.790	C.2	1	SAM1	0.000	
20	  N3	57.926	-18.597	-10.947	N.2	1	SAM1	0.000	
21	  C4	56.594	-18.829	-11.173	C.2	1	SAM1	0.000	
22	  C5	56.183	-19.608	-12.336	C.2	1	SAM1	0.000	
23	  C6	57.240	-20.128	-13.229	C.2	1	SAM1	0.000	
24	  N6	56.928	-20.850	-14.341	N.pl3	1	SAM1	0.000	
25	  N7	54.828	-19.663	-12.323	N.2	1	SAM1	0.000	
26	  C8	54.415	-18.968	-11.224	C.2	1	SAM1	0.000	
27	  N9	55.469	-18.472	-10.546	N.2	1	SAM1	0.000	
28	  HA	53.059	-18.284	-6.372	 H	1	SAM1	0.000	
29	 HB1	50.747	-19.548	-6.084	 H	1	SAM1	0.000	
30	 HB2	51.595	-20.860	-6.938	 H	1	SAM1	0.000	
31	 HG1	50.475	-19.584	-8.602	 H	1	SAM1	0.000	
32	 HG2	52.203	-19.174	-8.718	 H	1	SAM1	0.000	
33	 HE1	48.686	-17.686	-8.434	 H	1	SAM1	0.000	
34	 HE2	49.682	-17.580	-9.905	 H	1	SAM1	0.000	
35	 HE3	49.317	-16.111	-8.970	 H	1	SAM1	0.000	
36	  H1	53.882	-21.088	-6.467	 H	1	SAM1	0.000	
37	  H2	54.882	-19.789	-6.286	 H	1	SAM1	0.000	
38	  H2	59.879	-18.983	-11.561	 H	1	SAM1	0.000	
39	  H3	54.036	-19.990	-7.688	 H	1	SAM1	0.000	
40	  H8	53.383	-18.833	-10.936	 H	1	SAM1	0.000	
41	 H1'	56.170	-18.184	-8.622	 H	1	SAM1	0.000	
42	 H2'	56.330	-15.954	-10.289	 H	1	SAM1	0.000	
43	 H2'	56.563	-15.010	-8.177	 H	1	SAM1	0.000	
44	 H3'	53.989	-15.551	-10.456	 H	1	SAM1	0.000	
45	 H3'	54.925	-13.782	-9.426	 H	1	SAM1	0.000	
46	 H4'	53.479	-16.223	-7.510	 H	1	SAM1	0.000	
47	 H61	55.962	-21.038	-14.566	 H	1	SAM1	0.000	
48	 H62	57.663	-21.198	-14.940	 H	1	SAM1	0.000	
49	H5'1	51.679	-15.500	-8.929	 H	1	SAM1	0.000	
50	H5'2	51.935	-16.932	-9.954	 H	1	SAM1	0.000	
@<TRIPOS>BOND
1 1 2 1
2 1 36 1
3 1 37 1
4 1 39 1
5 2 3 1
6 2 5 1
7 2 28 1
8 3 4 ar
9 3 17 ar
10 5 6 1
11 5 29 1
12 5 30 1
13 6 7 1
14 6 31 1
15 6 32 1
16 7 8 1
17 7 9 1
18 8 33 1
19 8 34 1
20 8 35 1
21 9 10 1
22 9 49 1
23 9 50 1
24 10 11 1
25 10 12 1
26 10 46 1
27 11 16 1
28 12 13 1
29 12 14 1
30 12 44 1
31 13 45 1
32 14 15 1
33 14 16 1
34 14 42 1
35 15 43 1
36 16 27 1
37 16 41 1
38 18 19 ar
39 18 23 ar
40 19 20 ar
41 19 38 1
42 20 21 ar
43 21 22 ar
44 21 27 ar
45 22 23 ar
46 22 25 ar
47 23 24 1
48 24 47 1
49 24 48 1
50 25 26 ar
51 26 27 ar
52 26 40 1
@<TRIPOS>SUBSTRUCTURE
1	SAM1	1	GROUP	1 A	SAM
