# created with PyMOL 2.4.0
@<TRIPOS>MOLECULE
temp
50 52 1                 
SMALL
USER_CHARGES
@<TRIPOS>ATOM
1	   N	11.070	-14.736	-23.130	N.4	1	SAM1	0.000	
2	  CA	10.842	-14.592	-21.636	C.3	1	SAM1	0.000	
3	   C	9.902	-15.650	-21.114	C.2	1	SAM1	0.000	
4	   O	9.507	-16.521	-21.909	O.co2	1	SAM1	0.000	
5	  CB	10.470	-13.179	-21.191	C.3	1	SAM1	0.000	
6	  CG	11.741	-12.284	-21.058	C.3	1	SAM1	0.000	
7	  SD	12.758	-12.864	-19.642	S.3	1	SAM1	0.000	
8	  CE	12.919	-11.296	-18.718	C.3	1	SAM1	0.000	
9	 C5'	14.430	-12.907	-20.365	C.3	1	SAM1	0.000	
10	 C4'	14.658	-14.188	-21.146	C.3	1	SAM1	0.000	
11	 O4'	13.959	-14.097	-22.383	O.3	1	SAM1	0.000	
12	 C3'	16.122	-14.343	-21.577	C.3	1	SAM1	0.000	
13	 O3'	16.901	-15.002	-20.588	O.3	1	SAM1	0.000	
14	 C2'	15.982	-15.179	-22.841	C.3	1	SAM1	0.000	
15	 O2'	15.567	-16.534	-22.536	O.3	1	SAM1	0.000	
16	 C1'	14.743	-14.563	-23.487	C.3	1	SAM1	0.000	
17	 OXT	9.575	-15.695	-19.923	O.co2	1	SAM1	0.000	
18	  N1	16.402	-12.954	-28.141	N.2	1	SAM1	0.000	
19	  C2	16.331	-14.212	-27.646	C.2	1	SAM1	0.000	
20	  N3	15.888	-14.466	-26.384	N.2	1	SAM1	0.000	
21	  C4	15.502	-13.407	-25.651	C.2	1	SAM1	0.000	
22	  C5	15.530	-12.109	-26.133	C.2	1	SAM1	0.000	
23	  C6	16.008	-11.870	-27.400	C.2	1	SAM1	0.000	
24	  N6	16.093	-10.652	-27.955	N.pl3	1	SAM1	0.000	
25	  N7	15.148	-11.292	-25.114	N.2	1	SAM1	0.000	
26	  C8	14.835	-12.026	-24.046	C.2	1	SAM1	0.000	
27	  N9	15.084	-13.362	-24.333	N.2	1	SAM1	0.000	
28	  HA	11.811	-14.766	-21.167	 H	1	SAM1	0.000	
29	 HB1	9.967	-13.230	-20.225	 H	1	SAM1	0.000	
30	 HB2	9.799	-12.738	-21.928	 H	1	SAM1	0.000	
31	 HG1	11.441	-11.250	-20.889	 H	1	SAM1	0.000	
32	 HG2	12.327	-12.347	-21.975	 H	1	SAM1	0.000	
33	 HE1	11.986	-11.085	-18.196	 H	1	SAM1	0.000	
34	 HE2	13.138	-10.486	-19.413	 H	1	SAM1	0.000	
35	 HE3	13.729	-11.383	-17.994	 H	1	SAM1	0.000	
36	  H1	10.200	-14.584	-23.620	 H	1	SAM1	0.000	
37	  H2	11.411	-15.665	-23.330	 H	1	SAM1	0.000	
38	  H2	16.635	-15.039	-28.271	 H	1	SAM1	0.000	
39	  H3	11.751	-14.055	-23.434	 H	1	SAM1	0.000	
40	  H8	14.451	-11.645	-23.111	 H	1	SAM1	0.000	
41	 H1'	14.246	-15.291	-24.128	 H	1	SAM1	0.000	
42	 H2'	16.911	-15.196	-23.412	 H	1	SAM1	0.000	
43	 H2'	16.266	-16.942	-22.020	 H	1	SAM1	0.000	
44	 H3'	16.639	-13.396	-21.729	 H	1	SAM1	0.000	
45	 H3'	17.787	-15.112	-20.942	 H	1	SAM1	0.000	
46	 H4'	14.340	-15.007	-20.501	 H	1	SAM1	0.000	
47	 H61	15.795	-9.839	-27.436	 H	1	SAM1	0.000	
48	 H62	16.455	-10.548	-28.892	 H	1	SAM1	0.000	
49	H5'1	15.166	-12.844	-19.563	 H	1	SAM1	0.000	
50	H5'2	14.549	-12.056	-21.035	 H	1	SAM1	0.000	
@<TRIPOS>BOND
1 1 2 1
2 1 36 1
3 1 37 1
4 1 39 1
5 2 3 1
6 2 5 1
7 2 28 1
8 3 4 ar
9 3 17 ar
10 5 6 1
11 5 29 1
12 5 30 1
13 6 7 1
14 6 31 1
15 6 32 1
16 7 8 1
17 7 9 1
18 8 33 1
19 8 34 1
20 8 35 1
21 9 10 1
22 9 49 1
23 9 50 1
24 10 11 1
25 10 12 1
26 10 46 1
27 11 16 1
28 12 13 1
29 12 14 1
30 12 44 1
31 13 45 1
32 14 15 1
33 14 16 1
34 14 42 1
35 15 43 1
36 16 27 1
37 16 41 1
38 18 19 ar
39 18 23 ar
40 19 20 ar
41 19 38 1
42 20 21 ar
43 21 22 ar
44 21 27 ar
45 22 23 ar
46 22 25 ar
47 23 24 1
48 24 47 1
49 24 48 1
50 25 26 ar
51 26 27 ar
52 26 40 1
@<TRIPOS>SUBSTRUCTURE
1	SAM1	1	GROUP	1 A	SAM
