# created with PyMOL 2.5.0
@<TRIPOS>MOLECULE
3QWP
27 29 1                 
SMALL
USER_CHARGES
@<TRIPOS>ATOM
1	   N	11.070	-14.736	-23.130	N.3	1	SAM510	0.000	
2	  CA	10.842	-14.592	-21.636	C.3	1	SAM510	0.000	
3	   C	9.902	-15.650	-21.114	C.2	1	SAM510	0.000	
4	   O	9.507	-16.521	-21.909	O.co2	1	SAM510	0.000	
5	  CB	10.470	-13.179	-21.191	C.3	1	SAM510	0.000	
6	  CG	11.741	-12.284	-21.058	C.3	1	SAM510	0.000	
7	  SD	12.758	-12.864	-19.642	S.3	1	SAM510	0.000	
8	  CE	12.919	-11.296	-18.718	C.3	1	SAM510	0.000	
9	 C5'	14.430	-12.907	-20.365	C.3	1	SAM510	0.000	
10	 C4'	14.658	-14.188	-21.146	C.3	1	SAM510	0.000	
11	 O4'	13.959	-14.097	-22.383	O.3	1	SAM510	0.000	
12	 C3'	16.122	-14.343	-21.577	C.3	1	SAM510	0.000	
13	 O3'	16.901	-15.002	-20.588	O.3	1	SAM510	0.000	
14	 C2'	15.982	-15.179	-22.841	C.3	1	SAM510	0.000	
15	 O2'	15.567	-16.534	-22.536	O.3	1	SAM510	0.000	
16	 C1'	14.743	-14.563	-23.487	C.3	1	SAM510	0.000	
17	 OXT	9.575	-15.695	-19.923	O.co2	1	SAM510	0.000	
18	  N1	16.402	-12.954	-28.141	N.2	1	SAM510	0.000	
19	  C2	16.331	-14.212	-27.646	C.2	1	SAM510	0.000	
20	  N3	15.888	-14.466	-26.384	N.2	1	SAM510	0.000	
21	  C4	15.502	-13.407	-25.651	C.2	1	SAM510	0.000	
22	  C5	15.530	-12.109	-26.133	C.2	1	SAM510	0.000	
23	  C6	16.008	-11.870	-27.400	C.2	1	SAM510	0.000	
24	  N6	16.093	-10.652	-27.955	N.pl3	1	SAM510	0.000	
25	  N7	15.148	-11.292	-25.114	N.2	1	SAM510	0.000	
26	  C8	14.835	-12.026	-24.046	C.2	1	SAM510	0.000	
27	  N9	15.084	-13.362	-24.333	N.2	1	SAM510	0.000	
@<TRIPOS>BOND
1 1 2 1
2 2 3 1
3 2 5 1
4 3 4 ar
5 3 17 ar
6 5 6 1
7 6 7 1
8 7 8 1
9 7 9 1
10 9 10 1
11 10 11 1
12 10 12 1
13 11 16 1
14 12 13 1
15 12 14 1
16 14 15 1
17 14 16 1
18 16 27 1
19 18 19 ar
20 18 23 ar
21 19 20 ar
22 20 21 ar
23 21 22 ar
24 21 27 ar
25 22 23 ar
26 22 25 ar
27 23 24 1
28 25 26 ar
29 26 27 ar
@<TRIPOS>SUBSTRUCTURE
1	SAM510	1	GROUP	1 A	SAM
