@<TRIPOS>MOLECULE
3QWP.A
51 53 1 0 0 
SMALL
USER_CHARGES


@<TRIPOS>ATOM
  1 N       11.0700   -14.7360   -23.1300 N.4   1 SAM  -0.8530 
  2 H1      10.1998   -14.5839   -23.6196 H     1 SAM   0.4500 
  3 H2      11.4111   -15.6653   -23.3305 H     1 SAM   0.4500 
  4 H3      11.7508   -14.0546   -23.4339 H     1 SAM   0.4500 
  5 CA      10.8420   -14.5920   -21.6360 C.3   1 SAM   0.3170 
  6 HA      11.8106   -14.7662   -21.1673 H     1 SAM   0.0800 
  7 C        9.9020   -15.6500   -21.1140 C.2   1 SAM   0.9060 
  8 O        9.5070   -16.5210   -21.9090 O.co2 1 SAM  -0.9000 
  9 CB      10.4700   -13.1790   -21.1910 C.3   1 SAM  -0.1600 
 10 HB1      9.9668   -13.2299   -20.2254 H     1 SAM   0.0800 
 11 HB2      9.7986   -12.7380   -21.9278 H     1 SAM   0.0800 
 12 CG      11.7410   -12.2840   -21.0580 C.3   1 SAM  -0.1525 
 13 HG1     11.4405   -11.2499   -20.8892 H     1 SAM   0.0800 
 14 HG2     12.3267   -12.3471   -21.9751 H     1 SAM   0.0800 
 15 SD      12.7580   -12.8640   -19.6420 S.3   1 SAM   0.9775 
 16 CE      12.9190   -11.2960   -18.7180 C.3   1 SAM  -0.2325 
 17 HE1     11.9858   -11.0845   -18.1960 H     1 SAM   0.0800 
 18 HE2     13.1383   -10.4855   -19.4131 H     1 SAM   0.0800 
 19 HE3     13.7290   -11.3826   -17.9937 H     1 SAM   0.0800 
 20 C5'     14.4300   -12.9070   -20.3650 C.3   1 SAM  -0.1525 
 21 H5'1    15.1657   -12.8438   -19.5632 H     1 SAM   0.0800 
 22 H5'2    14.5493   -12.0559   -21.0355 H     1 SAM   0.0800 
 23 C4'     14.6580   -14.1880   -21.1460 C.3   1 SAM   0.2000 
 24 H4'     14.3401   -15.0073   -20.5012 H     1 SAM   0.0800 
 25 O4'     13.9590   -14.0970   -22.3830 O.3   1 SAM  -0.5600 
 26 C3'     16.1220   -14.3430   -21.5770 C.3   1 SAM   0.2000 
 27 H3'     16.6394   -13.3958   -21.7291 H     1 SAM   0.0800 
 28 O3'     16.9010   -15.0020   -20.5880 O.3   1 SAM  -0.6800 
 29 H3'     17.7867   -15.1116   -20.9416 H     1 SAM   0.4000 
 30 C2'     15.9820   -15.1790   -22.8410 C.3   1 SAM   0.2000 
 31 H2'     16.9106   -15.1956   -23.4116 H     1 SAM   0.0800 
 32 O2'     15.5670   -16.5340   -22.5360 O.3   1 SAM  -0.6800 
 33 H2'     16.2660   -16.9425   -22.0201 H     1 SAM   0.4000 
 34 C1'     14.7430   -14.5630   -23.4870 C.3   1 SAM   0.5691 
 35 H1'     14.2464   -15.2910   -24.1285 H     1 SAM   0.0800 
 36 OXT      9.5750   -15.6950   -19.9230 O.co2 1 SAM  -0.9000 
 37 N1      16.4020   -12.9540   -28.1410 N.2   1 SAM  -0.6610 
 38 C2      16.3310   -14.2120   -27.6460 C.2   1 SAM   0.6010 
 39 H2      16.6349   -15.0388   -28.2709 H     1 SAM   0.0600 
 40 N3      15.8880   -14.4660   -26.3840 N.2   1 SAM  -0.6610 
 41 C4      15.5020   -13.4070   -25.6510 C.2   1 SAM   0.5000 
 42 C5      15.5300   -12.1090   -26.1330 C.2   1 SAM   0.4500 
 43 C6      16.0080   -11.8700   -27.4000 C.2   1 SAM   0.6110 
 44 N6      16.0930   -10.6520   -27.9550 N.2   1 SAM  -0.2000 
 45 H62     16.4548   -10.5483   -28.8923 H     1 SAM   0.4000 
 46 H61     15.7952    -9.8385   -27.4357 H     1 SAM   0.4000 
 47 N7      15.1480   -11.2920   -25.1140 N.2   1 SAM  -0.6960 
 48 C8      14.8350   -12.0260   -24.0460 C.3   1 SAM   0.4551 
 49 H81     13.7800   -11.8931   -23.8065 H     1 SAM   0.0800 
 50 H82     15.4425   -11.7143   -23.1964 H     1 SAM   0.0800 
 51 N9      15.0840   -13.3620   -24.3330 N.pl3 1 SAM  -0.7882 
@<TRIPOS>BOND
  1   1   2  1   
  2   1   3  1   
  3   1   4  1   
  4   1   5  1   
  5   5   6  1   
  6   5   7  1   
  7   5   9  1   
  8   7   8  ar  
  9   7  36  ar  
 10   9  10  1   
 11   9  11  1   
 12   9  12  1   
 13  12  13  1   
 14  12  14  1   
 15  12  15  1   
 16  15  16  1   
 17  15  20  1   
 18  16  17  1   
 19  16  18  1   
 20  16  19  1   
 21  20  21  1   
 22  20  22  1   
 23  20  23  1   
 24  23  24  1   
 25  23  25  1   
 26  23  26  1   
 27  25  34  1   
 28  26  27  1   
 29  26  28  1   
 30  26  30  1   
 31  28  29  1   
 32  30  31  1   
 33  30  32  1   
 34  30  34  1   
 35  32  33  1   
 36  34  35  1   
 37  34  51  1   
 38  37  38  2   
 39  37  43  1   
 40  38  39  1   
 41  38  40  1   
 42  40  41  2   
 43  41  42  1   
 44  41  51  1   
 45  42  43  1   
 46  42  47  2   
 47  43  44  2   
 48  44  45  1   
 49  44  46  1   
 50  47  48  1   
 51  48  49  1   
 52  48  50  1   
 53  48  51  1   
@<TRIPOS>SUBSTRUCTURE
  1 SAM  25 GROUP 4 A **** 0

# MOE 2022.02 (io_trps.svl 2020.11)
