# created with PyMOL 2.4.0
@<TRIPOS>MOLECULE
temp
50 52 1                 
SMALL
USER_CHARGES
@<TRIPOS>ATOM
1	   N	-20.338	29.172	28.776	N.4	1	SAM1	0.000	
2	  CA	-21.180	28.172	28.125	C.3	1	SAM1	0.000	
3	   C	-22.645	28.520	28.265	C.2	1	SAM1	0.000	
4	   O	-23.462	28.068	27.430	O.co2	1	SAM1	0.000	
5	  CB	-20.859	26.785	28.719	C.3	1	SAM1	0.000	
6	  CG	-19.513	26.248	28.206	C.3	1	SAM1	0.000	
7	  SD	-18.927	24.838	28.916	S.3	1	SAM1	0.000	
8	  CE	-17.543	25.350	29.660	C.3	1	SAM1	0.000	
9	 C5'	-18.464	23.810	27.686	C.3	1	SAM1	0.000	
10	 C4'	-19.529	22.882	27.067	C.3	1	SAM1	0.000	
11	 O4'	-19.816	21.754	27.905	O.3	1	SAM1	0.000	
12	 C3'	-20.874	23.541	26.797	C.3	1	SAM1	0.000	
13	 O3'	-20.930	24.170	25.516	O.3	1	SAM1	0.000	
14	 C2'	-21.875	22.419	26.923	C.3	1	SAM1	0.000	
15	 O2'	-21.954	21.701	25.685	O.3	1	SAM1	0.000	
16	 C1'	-21.229	21.511	27.943	C.3	1	SAM1	0.000	
17	 OXT	-23.019	29.258	29.202	O.co2	1	SAM1	0.000	
18	  N1	-25.243	21.094	31.232	N.2	1	SAM1	0.000	
19	  C2	-25.115	20.703	29.955	C.2	1	SAM1	0.000	
20	  N3	-24.008	20.892	29.224	N.2	1	SAM1	0.000	
21	  C4	-22.927	21.490	29.769	C.2	1	SAM1	0.000	
22	  C5	-22.980	21.937	31.167	C.2	1	SAM1	0.000	
23	  C6	-24.238	21.695	31.902	C.2	1	SAM1	0.000	
24	  N6	-24.382	22.070	33.197	N.pl3	1	SAM1	0.000	
25	  N7	-21.782	22.491	31.442	N.2	1	SAM1	0.000	
26	  C8	-21.033	22.401	30.311	C.2	1	SAM1	0.000	
27	  N9	-21.725	21.814	29.312	N.2	1	SAM1	0.000	
28	  HA	-20.967	28.154	27.056	 H	1	SAM1	0.000	
29	 HB1	-21.648	26.088	28.437	 H	1	SAM1	0.000	
30	 HB2	-20.817	26.866	29.805	 H	1	SAM1	0.000	
31	 HG1	-18.768	27.028	28.362	 H	1	SAM1	0.000	
32	 HG2	-19.621	26.057	27.138	 H	1	SAM1	0.000	
33	 HE1	-17.798	26.028	30.475	 H	1	SAM1	0.000	
34	 HE2	-16.914	25.870	28.938	 H	1	SAM1	0.000	
35	 HE3	-17.005	24.490	30.058	 H	1	SAM1	0.000	
36	  H1	-20.537	29.187	29.766	 H	1	SAM1	0.000	
37	  H2	-20.528	30.082	28.381	 H	1	SAM1	0.000	
38	  H2	-25.953	20.207	29.489	 H	1	SAM1	0.000	
39	  H3	-19.366	28.939	28.632	 H	1	SAM1	0.000	
40	  H8	-20.016	22.754	30.223	 H	1	SAM1	0.000	
41	 H1'	-21.468	20.473	27.710	 H	1	SAM1	0.000	
42	 H2'	-22.875	22.765	27.186	 H	1	SAM1	0.000	
43	 H2'	-22.293	22.305	25.020	 H	1	SAM1	0.000	
44	 H3'	-21.073	24.352	27.498	 H	1	SAM1	0.000	
45	 H3'	-20.760	23.496	24.854	 H	1	SAM1	0.000	
46	 H4'	-19.069	22.592	26.122	 H	1	SAM1	0.000	
47	 H61	-23.620	22.525	33.679	 H	1	SAM1	0.000	
48	 H62	-25.251	21.894	33.680	 H	1	SAM1	0.000	
49	H5'1	-17.671	23.174	28.079	 H	1	SAM1	0.000	
50	H5'2	-18.068	24.429	26.881	 H	1	SAM1	0.000	
@<TRIPOS>BOND
1 1 2 1
2 1 36 1
3 1 37 1
4 1 39 1
5 2 3 1
6 2 5 1
7 2 28 1
8 3 4 ar
9 3 17 ar
10 5 6 1
11 5 29 1
12 5 30 1
13 6 7 1
14 6 31 1
15 6 32 1
16 7 8 1
17 7 9 1
18 8 33 1
19 8 34 1
20 8 35 1
21 9 10 1
22 9 49 1
23 9 50 1
24 10 11 1
25 10 12 1
26 10 46 1
27 11 16 1
28 12 13 1
29 12 14 1
30 12 44 1
31 13 45 1
32 14 15 1
33 14 16 1
34 14 42 1
35 15 43 1
36 16 27 1
37 16 41 1
38 18 19 ar
39 18 23 ar
40 19 20 ar
41 19 38 1
42 20 21 ar
43 21 22 ar
44 21 27 ar
45 22 23 ar
46 22 25 ar
47 23 24 1
48 24 47 1
49 24 48 1
50 25 26 ar
51 26 27 ar
52 26 40 1
@<TRIPOS>SUBSTRUCTURE
1	SAM1	1	GROUP	1 A	SAM
