# created with PyMOL 2.5.0
@<TRIPOS>MOLECULE
5H5F
27 29 1                 
SMALL
USER_CHARGES
@<TRIPOS>ATOM
1	   N	-20.338	29.172	28.776	N.3	1	SAM301	0.000	
2	  CA	-21.180	28.172	28.125	C.3	1	SAM301	0.000	
3	   C	-22.645	28.520	28.265	C.2	1	SAM301	0.000	
4	   O	-23.462	28.068	27.430	O.co2	1	SAM301	0.000	
5	  CB	-20.859	26.785	28.719	C.3	1	SAM301	0.000	
6	  CG	-19.513	26.248	28.206	C.3	1	SAM301	0.000	
7	  SD	-18.927	24.838	28.916	S.3	1	SAM301	0.000	
8	  CE	-17.543	25.350	29.660	C.3	1	SAM301	0.000	
9	 C5'	-18.464	23.810	27.686	C.3	1	SAM301	0.000	
10	 C4'	-19.529	22.882	27.067	C.3	1	SAM301	0.000	
11	 O4'	-19.816	21.754	27.905	O.3	1	SAM301	0.000	
12	 C3'	-20.874	23.541	26.797	C.3	1	SAM301	0.000	
13	 O3'	-20.930	24.170	25.516	O.3	1	SAM301	0.000	
14	 C2'	-21.875	22.419	26.923	C.3	1	SAM301	0.000	
15	 O2'	-21.954	21.701	25.685	O.3	1	SAM301	0.000	
16	 C1'	-21.229	21.511	27.943	C.3	1	SAM301	0.000	
17	 OXT	-23.019	29.258	29.202	O.co2	1	SAM301	0.000	
18	  N1	-25.243	21.094	31.232	N.2	1	SAM301	0.000	
19	  C2	-25.115	20.703	29.955	C.2	1	SAM301	0.000	
20	  N3	-24.008	20.892	29.224	N.2	1	SAM301	0.000	
21	  C4	-22.927	21.490	29.769	C.2	1	SAM301	0.000	
22	  C5	-22.980	21.937	31.167	C.2	1	SAM301	0.000	
23	  C6	-24.238	21.695	31.902	C.2	1	SAM301	0.000	
24	  N6	-24.382	22.070	33.197	N.pl3	1	SAM301	0.000	
25	  N7	-21.782	22.491	31.442	N.2	1	SAM301	0.000	
26	  C8	-21.033	22.401	30.311	C.2	1	SAM301	0.000	
27	  N9	-21.725	21.814	29.312	N.2	1	SAM301	0.000	
@<TRIPOS>BOND
1 1 2 1
2 2 3 1
3 2 5 1
4 3 4 ar
5 3 17 ar
6 5 6 1
7 6 7 1
8 7 8 1
9 7 9 1
10 9 10 1
11 10 11 1
12 10 12 1
13 11 16 1
14 12 13 1
15 12 14 1
16 14 15 1
17 14 16 1
18 16 27 1
19 18 19 ar
20 18 23 ar
21 19 20 ar
22 20 21 ar
23 21 22 ar
24 21 27 ar
25 22 23 ar
26 22 25 ar
27 23 24 1
28 25 26 ar
29 26 27 ar
@<TRIPOS>SUBSTRUCTURE
1	SAM301	1	GROUP	1 A	SAM
