@<TRIPOS>MOLECULE
5H5F.A
51 53 1 0 0 
SMALL
USER_CHARGES


@<TRIPOS>ATOM
  1 N      -20.3380    29.1720    28.7760 N.4   1 SAM  -0.8530 
  2 H1     -20.5373    29.1869    29.7660 H     1 SAM   0.4500 
  3 H2     -20.5285    30.0816    28.3805 H     1 SAM   0.4500 
  4 H3     -19.3659    28.9391    28.6317 H     1 SAM   0.4500 
  5 CA     -21.1800    28.1720    28.1250 C.3   1 SAM   0.3170 
  6 HA     -20.9669    28.1538    27.0562 H     1 SAM   0.0800 
  7 C      -22.6450    28.5200    28.2650 C.2   1 SAM   0.9060 
  8 O      -23.4620    28.0680    27.4300 O.co2 1 SAM  -0.9000 
  9 CB     -20.8590    26.7850    28.7190 C.3   1 SAM  -0.1600 
 10 HB1    -21.6484    26.0882    28.4374 H     1 SAM   0.0800 
 11 HB2    -20.8167    26.8664    29.8051 H     1 SAM   0.0800 
 12 CG     -19.5130    26.2480    28.2060 C.3   1 SAM  -0.1525 
 13 HG1    -18.7677    27.0280    28.3618 H     1 SAM   0.0800 
 14 HG2    -19.6214    26.0571    27.1383 H     1 SAM   0.0800 
 15 SD     -18.9270    24.8380    28.9160 S.3   1 SAM   0.9775 
 16 CE     -17.5430    25.3500    29.6600 C.3   1 SAM  -0.2325 
 17 HE1    -17.7979    26.0276    30.4748 H     1 SAM   0.0800 
 18 HE2    -16.9136    25.8704    28.9381 H     1 SAM   0.0800 
 19 HE3    -17.0047    24.4897    30.0578 H     1 SAM   0.0800 
 20 C5'    -18.4640    23.8100    27.6860 C.3   1 SAM  -0.1525 
 21 H5'1   -17.6710    23.1737    28.0789 H     1 SAM   0.0800 
 22 H5'2   -18.0680    24.4286    26.8806 H     1 SAM   0.0800 
 23 C4'    -19.5290    22.8820    27.0670 C.3   1 SAM   0.2000 
 24 H4'    -19.0692    22.5918    26.1223 H     1 SAM   0.0800 
 25 O4'    -19.8160    21.7540    27.9050 O.3   1 SAM  -0.5600 
 26 C3'    -20.8740    23.5410    26.7970 C.3   1 SAM   0.2000 
 27 H3'    -21.0735    24.3519    27.4976 H     1 SAM   0.0800 
 28 O3'    -20.9300    24.1700    25.5160 O.3   1 SAM  -0.6800 
 29 H3'    -20.7598    23.4960    24.8540 H     1 SAM   0.4000 
 30 C2'    -21.8750    22.4190    26.9230 C.3   1 SAM   0.2000 
 31 H2'    -22.8748    22.7649    27.1856 H     1 SAM   0.0800 
 32 O2'    -21.9540    21.7010    25.6850 O.3   1 SAM  -0.6800 
 33 H2'    -22.5490    20.9593    25.8171 H     1 SAM   0.4000 
 34 C1'    -21.2290    21.5110    27.9430 C.3   1 SAM   0.5691 
 35 H1'    -21.4677    20.4733    27.7099 H     1 SAM   0.0800 
 36 OXT    -23.0190    29.2580    29.2020 O.co2 1 SAM  -0.9000 
 37 N1     -25.2430    21.0940    31.2320 N.2   1 SAM  -0.6610 
 38 C2     -25.1150    20.7030    29.9550 C.2   1 SAM   0.6010 
 39 H2     -25.9534    20.2068    29.4889 H     1 SAM   0.0600 
 40 N3     -24.0080    20.8920    29.2240 N.2   1 SAM  -0.6610 
 41 C4     -22.9270    21.4900    29.7690 C.2   1 SAM   0.5000 
 42 C5     -22.9800    21.9370    31.1670 C.2   1 SAM   0.4500 
 43 C6     -24.2380    21.6950    31.9020 C.2   1 SAM   0.6110 
 44 N6     -24.3820    22.0700    33.1970 N.2   1 SAM  -0.2000 
 45 H62    -25.2515    21.8944    33.6799 H     1 SAM   0.4000 
 46 H61    -23.6198    22.5250    33.6788 H     1 SAM   0.4000 
 47 N7     -21.7820    22.4910    31.4420 N.2   1 SAM  -0.6960 
 48 C8     -21.0330    22.4010    30.3110 C.3   1 SAM   0.4551 
 49 H81    -20.1417    21.8098    30.5211 H     1 SAM   0.0800 
 50 H82    -20.7390    23.4031    29.9987 H     1 SAM   0.0800 
 51 N9     -21.7250    21.8140    29.3120 N.pl3 1 SAM  -0.7882 
@<TRIPOS>BOND
  1   1   2  1   
  2   1   3  1   
  3   1   4  1   
  4   1   5  1   
  5   5   6  1   
  6   5   7  1   
  7   5   9  1   
  8   7   8  ar  
  9   7  36  ar  
 10   9  10  1   
 11   9  11  1   
 12   9  12  1   
 13  12  13  1   
 14  12  14  1   
 15  12  15  1   
 16  15  16  1   
 17  15  20  1   
 18  16  17  1   
 19  16  18  1   
 20  16  19  1   
 21  20  21  1   
 22  20  22  1   
 23  20  23  1   
 24  23  24  1   
 25  23  25  1   
 26  23  26  1   
 27  25  34  1   
 28  26  27  1   
 29  26  28  1   
 30  26  30  1   
 31  28  29  1   
 32  30  31  1   
 33  30  32  1   
 34  30  34  1   
 35  32  33  1   
 36  34  35  1   
 37  34  51  1   
 38  37  38  2   
 39  37  43  1   
 40  38  39  1   
 41  38  40  1   
 42  40  41  2   
 43  41  42  1   
 44  41  51  1   
 45  42  43  1   
 46  42  47  2   
 47  43  44  2   
 48  44  45  1   
 49  44  46  1   
 50  47  48  1   
 51  48  49  1   
 52  48  50  1   
 53  48  51  1   
@<TRIPOS>SUBSTRUCTURE
  1 SAM  51 GROUP 4 A **** 0

# MOE 2022.02 (io_trps.svl 2020.11)
