# created with PyMOL 2.4.0
@<TRIPOS>MOLECULE
temp
50 52 1                 
SMALL
USER_CHARGES
@<TRIPOS>ATOM
1	   N	-10.148	20.806	-13.887	N.4	1	SAM1	0.000	
2	  CA	-9.503	19.522	-13.670	C.3	1	SAM1	0.000	
3	   C	-8.529	19.572	-12.508	C.2	1	SAM1	0.000	
4	   O	-8.393	18.593	-11.747	O.co2	1	SAM1	0.000	
5	  CB	-8.791	19.066	-14.949	C.3	1	SAM1	0.000	
6	  CG	-7.997	17.764	-14.773	C.3	1	SAM1	0.000	
7	  SD	-8.959	16.350	-14.149	S.3	1	SAM1	0.000	
8	  CE	-7.635	15.299	-13.513	C.3	1	SAM1	0.000	
9	 C5'	-9.419	15.527	-15.696	C.3	1	SAM1	0.000	
10	 C4'	-8.295	14.819	-16.449	C.3	1	SAM1	0.000	
11	 O4'	-8.030	13.523	-15.905	O.3	1	SAM1	0.000	
12	 C3'	-8.729	14.555	-17.881	C.3	1	SAM1	0.000	
13	 O3'	-8.436	15.626	-18.749	O.3	1	SAM1	0.000	
14	 C2'	-7.940	13.336	-18.255	C.3	1	SAM1	0.000	
15	 O2'	-6.606	13.692	-18.545	O.3	1	SAM1	0.000	
16	 C1'	-7.907	12.588	-16.954	C.3	1	SAM1	0.000	
17	 OXT	-7.887	20.609	-12.300	O.co2	1	SAM1	0.000	
18	  N1	-9.499	7.895	-18.228	N.2	1	SAM1	0.000	
19	  C2	-8.367	8.568	-18.635	C.2	1	SAM1	0.000	
20	  N3	-8.125	9.849	-18.204	N.2	1	SAM1	0.000	
21	  C4	-9.015	10.388	-17.353	C.2	1	SAM1	0.000	
22	  C5	-10.171	9.744	-16.923	C.2	1	SAM1	0.000	
23	  C6	-10.424	8.457	-17.382	C.2	1	SAM1	0.000	
24	  N6	-11.513	7.768	-17.013	N.pl3	1	SAM1	0.000	
25	  N7	-10.827	10.583	-16.085	N.2	1	SAM1	0.000	
26	  C8	-10.118	11.734	-15.999	C.2	1	SAM1	0.000	
27	  N9	-8.998	11.622	-16.779	N.2	1	SAM1	0.000	
28	  HA	-10.277	18.798	-13.416	 H	1	SAM1	0.000	
29	 HB1	-8.102	19.851	-15.260	 H	1	SAM1	0.000	
30	 HB2	-9.540	18.912	-15.725	 H	1	SAM1	0.000	
31	 HG1	-7.185	17.956	-14.071	 H	1	SAM1	0.000	
32	 HG2	-7.582	17.488	-15.742	 H	1	SAM1	0.000	
33	 HE1	-7.273	15.703	-12.568	 H	1	SAM1	0.000	
34	 HE2	-6.817	15.270	-14.233	 H	1	SAM1	0.000	
35	 HE3	-8.016	14.290	-13.355	 H	1	SAM1	0.000	
36	  H1	-9.451	21.497	-14.125	 H	1	SAM1	0.000	
37	  H2	-10.628	21.088	-13.044	 H	1	SAM1	0.000	
38	  H2	-7.665	8.084	-19.298	 H	1	SAM1	0.000	
39	  H3	-10.813	20.725	-14.642	 H	1	SAM1	0.000	
40	  H8	-10.391	12.598	-15.412	 H	1	SAM1	0.000	
41	 H1'	-6.968	12.034	-16.950	 H	1	SAM1	0.000	
42	 H2'	-8.355	12.803	-19.111	 H	1	SAM1	0.000	
43	 H2'	-6.618	14.254	-19.322	 H	1	SAM1	0.000	
44	 H3'	-9.808	14.427	-17.963	 H	1	SAM1	0.000	
45	 H3'	-8.713	15.369	-19.631	 H	1	SAM1	0.000	
46	 H4'	-7.419	15.464	-16.377	 H	1	SAM1	0.000	
47	 H61	-12.183	8.183	-16.381	 H	1	SAM1	0.000	
48	 H62	-11.664	6.834	-17.367	 H	1	SAM1	0.000	
49	H5'1	-9.839	16.282	-16.361	 H	1	SAM1	0.000	
50	H5'2	-10.181	14.784	-15.462	 H	1	SAM1	0.000	
@<TRIPOS>BOND
1 1 2 1
2 1 36 1
3 1 37 1
4 1 39 1
5 2 3 1
6 2 5 1
7 2 28 1
8 3 4 ar
9 3 17 ar
10 5 6 1
11 5 29 1
12 5 30 1
13 6 7 1
14 6 31 1
15 6 32 1
16 7 8 1
17 7 9 1
18 8 33 1
19 8 34 1
20 8 35 1
21 9 10 1
22 9 49 1
23 9 50 1
24 10 11 1
25 10 12 1
26 10 46 1
27 11 16 1
28 12 13 1
29 12 14 1
30 12 44 1
31 13 45 1
32 14 15 1
33 14 16 1
34 14 42 1
35 15 43 1
36 16 27 1
37 16 41 1
38 18 19 ar
39 18 23 ar
40 19 20 ar
41 19 38 1
42 20 21 ar
43 21 22 ar
44 21 27 ar
45 22 23 ar
46 22 25 ar
47 23 24 1
48 24 47 1
49 24 48 1
50 25 26 ar
51 26 27 ar
52 26 40 1
@<TRIPOS>SUBSTRUCTURE
1	SAM1	1	GROUP	1 A	SAM
