@<TRIPOS>MOLECULE
6BM5.A
51 53 1 0 0 
SMALL
USER_CHARGES


@<TRIPOS>ATOM
  1 N      -10.1480    20.8060   -13.8870 N.4   1 SAM  -0.8530 
  2 H1      -9.4509    21.4970   -14.1249 H     1 SAM   0.4500 
  3 H2     -10.6280    21.0883   -13.0444 H     1 SAM   0.4500 
  4 H3     -10.8134    20.7251   -14.6425 H     1 SAM   0.4500 
  5 CA      -9.5030    19.5220   -13.6700 C.3   1 SAM   0.3170 
  6 HA     -10.2774    18.7984   -13.4157 H     1 SAM   0.0800 
  7 C       -8.5290    19.5720   -12.5080 C.2   1 SAM   0.9060 
  8 O       -8.3930    18.5930   -11.7470 O.co2 1 SAM  -0.9000 
  9 CB      -8.7910    19.0660   -14.9490 C.3   1 SAM  -0.1600 
 10 HB1     -8.1022    19.8515   -15.2599 H     1 SAM   0.0800 
 11 HB2     -9.5403    18.9116   -15.7254 H     1 SAM   0.0800 
 12 CG      -7.9970    17.7640   -14.7730 C.3   1 SAM  -0.1525 
 13 HG1     -7.1853    17.9559   -14.0713 H     1 SAM   0.0800 
 14 HG2     -7.5817    17.4883   -15.7423 H     1 SAM   0.0800 
 15 SD      -8.9590    16.3500   -14.1490 S.3   1 SAM   0.9775 
 16 CE      -7.6350    15.2990   -13.5130 C.3   1 SAM  -0.2325 
 17 HE1     -7.2729    15.7029   -12.5675 H     1 SAM   0.0800 
 18 HE2     -6.8169    15.2697   -14.2327 H     1 SAM   0.0800 
 19 HE3     -8.0161    14.2901   -13.3549 H     1 SAM   0.0800 
 20 C5'     -9.4190    15.5270   -15.6960 C.3   1 SAM  -0.1525 
 21 H5'1    -9.8394    16.2816   -16.3607 H     1 SAM   0.0800 
 22 H5'2   -10.1811    14.7836   -15.4622 H     1 SAM   0.0800 
 23 C4'     -8.2950    14.8190   -16.4490 C.3   1 SAM   0.2000 
 24 H4'     -7.4193    15.4641   -16.3768 H     1 SAM   0.0800 
 25 O4'     -8.0300    13.5230   -15.9050 O.3   1 SAM  -0.5600 
 26 C3'     -8.7290    14.5550   -17.8810 C.3   1 SAM   0.2000 
 27 H3'     -9.8084    14.4272   -17.9627 H     1 SAM   0.0800 
 28 O3'     -8.4360    15.6260   -18.7490 O.3   1 SAM  -0.6800 
 29 H3'     -7.4889    15.7787   -18.7122 H     1 SAM   0.4000 
 30 C2'     -7.9400    13.3360   -18.2550 C.3   1 SAM   0.2000 
 31 H2'     -8.3547    12.8032   -19.1107 H     1 SAM   0.0800 
 32 O2'     -6.6060    13.6920   -18.5450 O.3   1 SAM  -0.6800 
 33 H2'     -6.1185    12.8815   -18.7095 H     1 SAM   0.4000 
 34 C1'     -7.9070    12.5880   -16.9540 C.3   1 SAM   0.5691 
 35 H1'     -6.9682    12.0341   -16.9498 H     1 SAM   0.0800 
 36 OXT     -7.8870    20.6090   -12.3000 O.co2 1 SAM  -0.9000 
 37 N1      -9.4990     7.8950   -18.2280 N.2   1 SAM  -0.6610 
 38 C2      -8.3670     8.5680   -18.6350 C.2   1 SAM   0.6010 
 39 H2      -7.6651     8.0840   -19.2979 H     1 SAM   0.0600 
 40 N3      -8.1250     9.8490   -18.2040 N.2   1 SAM  -0.6610 
 41 C4      -9.0150    10.3880   -17.3530 C.2   1 SAM   0.5000 
 42 C5     -10.1710     9.7440   -16.9230 C.2   1 SAM   0.4500 
 43 C6     -10.4240     8.4570   -17.3820 C.2   1 SAM   0.6110 
 44 N6     -11.5130     7.7680   -17.0130 N.2   1 SAM  -0.2000 
 45 H62    -11.6638     6.8342   -17.3671 H     1 SAM   0.4000 
 46 H61    -12.1827     8.1826   -16.3808 H     1 SAM   0.4000 
 47 N7     -10.8270    10.5830   -16.0850 N.2   1 SAM  -0.6960 
 48 C8     -10.1180    11.7340   -15.9990 C.3   1 SAM   0.4551 
 49 H81     -9.8270    11.9085   -14.9631 H     1 SAM   0.0800 
 50 H82    -10.7273    12.5667   -16.3504 H     1 SAM   0.0800 
 51 N9      -8.9980    11.6220   -16.7790 N.pl3 1 SAM  -0.7882 
@<TRIPOS>BOND
  1   1   2  1   
  2   1   3  1   
  3   1   4  1   
  4   1   5  1   
  5   5   6  1   
  6   5   7  1   
  7   5   9  1   
  8   7   8  ar  
  9   7  36  ar  
 10   9  10  1   
 11   9  11  1   
 12   9  12  1   
 13  12  13  1   
 14  12  14  1   
 15  12  15  1   
 16  15  16  1   
 17  15  20  1   
 18  16  17  1   
 19  16  18  1   
 20  16  19  1   
 21  20  21  1   
 22  20  22  1   
 23  20  23  1   
 24  23  24  1   
 25  23  25  1   
 26  23  26  1   
 27  25  34  1   
 28  26  27  1   
 29  26  28  1   
 30  26  30  1   
 31  28  29  1   
 32  30  31  1   
 33  30  32  1   
 34  30  34  1   
 35  32  33  1   
 36  34  35  1   
 37  34  51  1   
 38  37  38  2   
 39  37  43  1   
 40  38  39  1   
 41  38  40  1   
 42  40  41  2   
 43  41  42  1   
 44  41  51  1   
 45  42  43  1   
 46  42  47  2   
 47  43  44  2   
 48  44  45  1   
 49  44  46  1   
 50  47  48  1   
 51  48  49  1   
 52  48  50  1   
 53  48  51  1   
@<TRIPOS>SUBSTRUCTURE
  1 SAM  25 GROUP 4 A **** 0

# MOE 2022.02 (io_trps.svl 2020.11)
