# created with PyMOL 2.5.0
@<TRIPOS>MOLECULE
6BM5
27 29 1                 
SMALL
USER_CHARGES
@<TRIPOS>ATOM
1	   N	-10.148	20.806	-13.887	N.3	1	SAM1301	0.000	
2	  CA	-9.503	19.522	-13.670	C.3	1	SAM1301	0.000	
3	   C	-8.529	19.572	-12.508	C.2	1	SAM1301	0.000	
4	   O	-8.393	18.593	-11.747	O.co2	1	SAM1301	0.000	
5	  CB	-8.791	19.066	-14.949	C.3	1	SAM1301	0.000	
6	  CG	-7.997	17.764	-14.773	C.3	1	SAM1301	0.000	
7	  SD	-8.959	16.350	-14.149	S.3	1	SAM1301	0.000	
8	  CE	-7.635	15.299	-13.513	C.3	1	SAM1301	0.000	
9	 C5'	-9.419	15.527	-15.696	C.3	1	SAM1301	0.000	
10	 C4'	-8.295	14.819	-16.449	C.3	1	SAM1301	0.000	
11	 O4'	-8.030	13.523	-15.905	O.3	1	SAM1301	0.000	
12	 C3'	-8.729	14.555	-17.881	C.3	1	SAM1301	0.000	
13	 O3'	-8.436	15.626	-18.749	O.3	1	SAM1301	0.000	
14	 C2'	-7.940	13.336	-18.255	C.3	1	SAM1301	0.000	
15	 O2'	-6.606	13.692	-18.545	O.3	1	SAM1301	0.000	
16	 C1'	-7.907	12.588	-16.954	C.3	1	SAM1301	0.000	
17	 OXT	-7.887	20.609	-12.300	O.co2	1	SAM1301	0.000	
18	  N1	-9.499	7.895	-18.228	N.2	1	SAM1301	0.000	
19	  C2	-8.367	8.568	-18.635	C.2	1	SAM1301	0.000	
20	  N3	-8.125	9.849	-18.204	N.2	1	SAM1301	0.000	
21	  C4	-9.015	10.388	-17.353	C.2	1	SAM1301	0.000	
22	  C5	-10.171	9.744	-16.923	C.2	1	SAM1301	0.000	
23	  C6	-10.424	8.457	-17.382	C.2	1	SAM1301	0.000	
24	  N6	-11.513	7.768	-17.013	N.pl3	1	SAM1301	0.000	
25	  N7	-10.827	10.583	-16.085	N.2	1	SAM1301	0.000	
26	  C8	-10.118	11.734	-15.999	C.2	1	SAM1301	0.000	
27	  N9	-8.998	11.622	-16.779	N.2	1	SAM1301	0.000	
@<TRIPOS>BOND
1 1 2 1
2 2 3 1
3 2 5 1
4 3 4 ar
5 3 17 ar
6 5 6 1
7 6 7 1
8 7 8 1
9 7 9 1
10 9 10 1
11 10 11 1
12 10 12 1
13 11 16 1
14 12 13 1
15 12 14 1
16 14 15 1
17 14 16 1
18 16 27 1
19 18 19 ar
20 18 23 ar
21 19 20 ar
22 20 21 ar
23 21 22 ar
24 21 27 ar
25 22 23 ar
26 22 25 ar
27 23 24 1
28 25 26 ar
29 26 27 ar
@<TRIPOS>SUBSTRUCTURE
1	SAM1301	1	GROUP	1 A	SAM
