@<TRIPOS>MOLECULE
7LZD.A
51 53 1 0 0 
SMALL
USER_CHARGES


@<TRIPOS>ATOM
  1 N       -3.3170    25.8640    20.4680 N.4   1 SAM  -0.8530 
  2 H1      -2.8556    25.3432    21.2001 H     1 SAM   0.4500 
  3 H2      -3.8150    26.6441    20.8724 H     1 SAM   0.4500 
  4 H3      -2.6285    26.2069    19.8135 H     1 SAM   0.4500 
  5 CA      -4.2600    24.9930    19.7710 C.3   1 SAM   0.3170 
  6 HA      -4.7545    25.5606    18.9827 H     1 SAM   0.0800 
  7 C       -5.4200    24.5170    20.6400 C.2   1 SAM   0.9060 
  8 O       -5.6720    25.1010    21.7220 O.co2 1 SAM  -0.9000 
  9 CB      -3.4570    23.8380    19.1700 C.3   1 SAM  -0.1600 
 10 HB1     -4.1350    23.0032    18.9924 H     1 SAM   0.0800 
 11 HB2     -2.6933    23.5394    19.8881 H     1 SAM   0.0800 
 12 CG      -2.7620    24.1930    17.8390 C.3   1 SAM  -0.1525 
 13 HG1     -2.0421    23.4038    17.6220 H     1 SAM   0.0800 
 14 HG2     -2.2348    25.1360    17.9834 H     1 SAM   0.0800 
 15 SD      -3.7550    24.3650    16.4850 S.3   1 SAM   0.9775 
 16 CE      -3.2050    23.2790    15.3330 C.3   1 SAM  -0.2325 
 17 HE1     -3.3982    22.2611    15.6717 H     1 SAM   0.0800 
 18 HE2     -2.1336    23.4161    15.1867 H     1 SAM   0.0800 
 19 HE3     -3.7255    23.4535    14.3914 H     1 SAM   0.0800 
 20 C5'     -3.3890    25.8860    15.8240 C.3   1 SAM  -0.1525 
 21 H5'1    -3.7253    25.8920    14.7872 H     1 SAM   0.0800 
 22 H5'2    -2.3072    26.0152    15.8558 H     1 SAM   0.0800 
 23 C4'     -4.0330    27.0890    16.5400 C.3   1 SAM   0.2000 
 24 H4'     -5.0736    26.8042    16.6952 H     1 SAM   0.0800 
 25 O4'     -3.3680    27.3800    17.7890 O.3   1 SAM  -0.5600 
 26 C3'     -3.9290    28.3700    15.7130 C.3   1 SAM   0.2000 
 27 H3'     -3.0571    28.4458    15.0632 H     1 SAM   0.0800 
 28 O3'     -5.0170    28.4570    14.7980 O.3   1 SAM  -0.6800 
 29 H3'     -5.8292    28.3966    15.3062 H     1 SAM   0.4000 
 30 C2'     -3.9010    29.4470    16.7920 C.3   1 SAM   0.2000 
 31 H2'     -3.4509    30.3873    16.4738 H     1 SAM   0.0800 
 32 O2'     -5.2340    29.7670    17.1930 O.3   1 SAM  -0.6800 
 33 H2'     -5.6836    30.1427    16.4325 H     1 SAM   0.4000 
 34 C1'     -3.1230    28.7760    17.9190 C.3   1 SAM   0.5691 
 35 H1'     -3.4417    29.1737    18.8825 H     1 SAM   0.0800 
 36 OXT     -6.1450    23.5780    20.2430 O.co2 1 SAM  -0.9000 
 37 N1       0.6220    32.3480    18.3650 N.2   1 SAM  -0.6610 
 38 C2      -0.7150    32.4490    18.5470 C.2   1 SAM   0.6010 
 39 H2      -1.1256    33.4130    18.8087 H     1 SAM   0.0600 
 40 N3      -1.5610    31.4060    18.4180 N.2   1 SAM  -0.6610 
 41 C4      -1.0860    30.1980    18.0470 C.2   1 SAM   0.5000 
 42 C5       0.3390    30.0140    17.8170 C.2   1 SAM   0.4500 
 43 C6       1.1870    31.1750    18.0190 C.2   1 SAM   0.6110 
 44 N6       2.5070    31.0350    17.8270 N.2   1 SAM  -0.2000 
 45 H62      3.1231    31.8242    17.9596 H     1 SAM   0.4000 
 46 H61      2.8849    30.1403    17.5498 H     1 SAM   0.4000 
 47 N7       0.5510    28.7350    17.4570 N.2   1 SAM  -0.6960 
 48 C8      -0.6730    28.1620    17.4570 C.3   1 SAM   0.4551 
 49 H81     -0.6710    27.3353    18.1674 H     1 SAM   0.0800 
 50 H82     -0.8797    27.7811    16.4569 H     1 SAM   0.0800 
 51 N9      -1.6510    29.0240    17.8010 N.pl3 1 SAM  -0.7882 
@<TRIPOS>BOND
  1   1   2  1   
  2   1   3  1   
  3   1   4  1   
  4   1   5  1   
  5   5   6  1   
  6   5   7  1   
  7   5   9  1   
  8   7   8  ar  
  9   7  36  ar  
 10   9  10  1   
 11   9  11  1   
 12   9  12  1   
 13  12  13  1   
 14  12  14  1   
 15  12  15  1   
 16  15  16  1   
 17  15  20  1   
 18  16  17  1   
 19  16  18  1   
 20  16  19  1   
 21  20  21  1   
 22  20  22  1   
 23  20  23  1   
 24  23  24  1   
 25  23  25  1   
 26  23  26  1   
 27  25  34  1   
 28  26  27  1   
 29  26  28  1   
 30  26  30  1   
 31  28  29  1   
 32  30  31  1   
 33  30  32  1   
 34  30  34  1   
 35  32  33  1   
 36  34  35  1   
 37  34  51  1   
 38  37  38  2   
 39  37  43  1   
 40  38  39  1   
 41  38  40  1   
 42  40  41  2   
 43  41  42  1   
 44  41  51  1   
 45  42  43  1   
 46  42  47  2   
 47  43  44  2   
 48  44  45  1   
 49  44  46  1   
 50  47  48  1   
 51  48  49  1   
 52  48  50  1   
 53  48  51  1   
@<TRIPOS>SUBSTRUCTURE
  1 SAM  25 GROUP 4 A **** 0

# MOE 2022.02 (io_trps.svl 2020.11)
