# created with PyMOL 2.5.0
@<TRIPOS>MOLECULE
7LZD
27 29 1                 
SMALL
USER_CHARGES
@<TRIPOS>ATOM
1	   N	-3.317	25.864	20.468	N.3	1	SAM1804	0.000	
2	  CA	-4.260	24.993	19.771	C.3	1	SAM1804	0.000	
3	   C	-5.420	24.517	20.640	C.2	1	SAM1804	0.000	
4	   O	-5.672	25.101	21.722	O.co2	1	SAM1804	0.000	
5	  CB	-3.457	23.838	19.170	C.3	1	SAM1804	0.000	
6	  CG	-2.762	24.193	17.839	C.3	1	SAM1804	0.000	
7	  SD	-3.755	24.365	16.485	S.3	1	SAM1804	0.000	
8	  CE	-3.205	23.279	15.333	C.3	1	SAM1804	0.000	
9	 C5'	-3.389	25.886	15.824	C.3	1	SAM1804	0.000	
10	 C4'	-4.033	27.089	16.540	C.3	1	SAM1804	0.000	
11	 O4'	-3.368	27.380	17.789	O.3	1	SAM1804	0.000	
12	 C3'	-3.929	28.370	15.713	C.3	1	SAM1804	0.000	
13	 O3'	-5.017	28.457	14.798	O.3	1	SAM1804	0.000	
14	 C2'	-3.901	29.447	16.792	C.3	1	SAM1804	0.000	
15	 O2'	-5.234	29.767	17.193	O.3	1	SAM1804	0.000	
16	 C1'	-3.123	28.776	17.919	C.3	1	SAM1804	0.000	
17	 OXT	-6.145	23.578	20.243	O.co2	1	SAM1804	0.000	
18	  N1	0.622	32.348	18.365	N.2	1	SAM1804	0.000	
19	  C2	-0.715	32.449	18.547	C.2	1	SAM1804	0.000	
20	  N3	-1.561	31.406	18.418	N.2	1	SAM1804	0.000	
21	  C4	-1.086	30.198	18.047	C.2	1	SAM1804	0.000	
22	  C5	0.339	30.014	17.817	C.2	1	SAM1804	0.000	
23	  C6	1.187	31.175	18.019	C.2	1	SAM1804	0.000	
24	  N6	2.507	31.035	17.827	N.pl3	1	SAM1804	0.000	
25	  N7	0.551	28.735	17.457	N.2	1	SAM1804	0.000	
26	  C8	-0.673	28.162	17.457	C.2	1	SAM1804	0.000	
27	  N9	-1.651	29.024	17.801	N.2	1	SAM1804	0.000	
@<TRIPOS>BOND
1 1 2 1
2 2 3 1
3 2 5 1
4 3 4 ar
5 3 17 ar
6 5 6 1
7 6 7 1
8 7 8 1
9 7 9 1
10 9 10 1
11 10 11 1
12 10 12 1
13 11 16 1
14 12 13 1
15 12 14 1
16 14 15 1
17 14 16 1
18 16 27 1
19 18 19 ar
20 18 23 ar
21 19 20 ar
22 20 21 ar
23 21 22 ar
24 21 27 ar
25 22 23 ar
26 22 25 ar
27 23 24 1
28 25 26 ar
29 26 27 ar
@<TRIPOS>SUBSTRUCTURE
1	SAM1804	1	GROUP	1 A	SAM
