# created with PyMOL 2.4.0
@<TRIPOS>MOLECULE
temp
50 52 1                 
SMALL
USER_CHARGES
@<TRIPOS>ATOM
1	   N	-3.317	25.864	20.468	N.4	1	SAM1	0.000	
2	  CA	-4.260	24.993	19.771	C.3	1	SAM1	0.000	
3	   C	-5.420	24.517	20.640	C.2	1	SAM1	0.000	
4	   O	-5.672	25.101	21.722	O.co2	1	SAM1	0.000	
5	  CB	-3.457	23.838	19.170	C.3	1	SAM1	0.000	
6	  CG	-2.762	24.193	17.839	C.3	1	SAM1	0.000	
7	  SD	-3.755	24.365	16.485	S.3	1	SAM1	0.000	
8	  CE	-3.205	23.279	15.333	C.3	1	SAM1	0.000	
9	 C5'	-3.389	25.886	15.824	C.3	1	SAM1	0.000	
10	 C4'	-4.033	27.089	16.540	C.3	1	SAM1	0.000	
11	 O4'	-3.368	27.380	17.789	O.3	1	SAM1	0.000	
12	 C3'	-3.929	28.370	15.713	C.3	1	SAM1	0.000	
13	 O3'	-5.017	28.457	14.798	O.3	1	SAM1	0.000	
14	 C2'	-3.901	29.447	16.792	C.3	1	SAM1	0.000	
15	 O2'	-5.234	29.767	17.193	O.3	1	SAM1	0.000	
16	 C1'	-3.123	28.776	17.919	C.3	1	SAM1	0.000	
17	 OXT	-6.145	23.578	20.243	O.co2	1	SAM1	0.000	
18	  N1	0.622	32.348	18.365	N.2	1	SAM1	0.000	
19	  C2	-0.715	32.449	18.547	C.2	1	SAM1	0.000	
20	  N3	-1.561	31.406	18.418	N.2	1	SAM1	0.000	
21	  C4	-1.086	30.198	18.047	C.2	1	SAM1	0.000	
22	  C5	0.339	30.014	17.817	C.2	1	SAM1	0.000	
23	  C6	1.187	31.175	18.019	C.2	1	SAM1	0.000	
24	  N6	2.507	31.035	17.827	N.pl3	1	SAM1	0.000	
25	  N7	0.551	28.735	17.457	N.2	1	SAM1	0.000	
26	  C8	-0.673	28.162	17.457	C.2	1	SAM1	0.000	
27	  N9	-1.651	29.024	17.801	N.2	1	SAM1	0.000	
28	  HA	-4.754	25.561	18.983	 H	1	SAM1	0.000	
29	 HB1	-4.135	23.003	18.992	 H	1	SAM1	0.000	
30	 HB2	-2.693	23.539	19.888	 H	1	SAM1	0.000	
31	 HG1	-2.042	23.404	17.622	 H	1	SAM1	0.000	
32	 HG2	-2.235	25.136	17.983	 H	1	SAM1	0.000	
33	 HE1	-3.398	22.261	15.672	 H	1	SAM1	0.000	
34	 HE2	-2.134	23.416	15.187	 H	1	SAM1	0.000	
35	 HE3	-3.726	23.454	14.391	 H	1	SAM1	0.000	
36	  H1	-2.856	25.343	21.200	 H	1	SAM1	0.000	
37	  H2	-3.815	26.644	20.872	 H	1	SAM1	0.000	
38	  H2	-1.126	33.413	18.809	 H	1	SAM1	0.000	
39	  H3	-2.628	26.207	19.813	 H	1	SAM1	0.000	
40	  H8	-0.849	27.126	17.208	 H	1	SAM1	0.000	
41	 H1'	-3.442	29.174	18.882	 H	1	SAM1	0.000	
42	 H2'	-3.451	30.387	16.474	 H	1	SAM1	0.000	
43	 H2'	-5.684	30.143	16.433	 H	1	SAM1	0.000	
44	 H3'	-3.057	28.446	15.063	 H	1	SAM1	0.000	
45	 H3'	-4.950	29.301	14.347	 H	1	SAM1	0.000	
46	 H4'	-5.074	26.804	16.695	 H	1	SAM1	0.000	
47	 H61	2.885	30.140	17.550	 H	1	SAM1	0.000	
48	 H62	3.123	31.824	17.960	 H	1	SAM1	0.000	
49	H5'1	-3.725	25.892	14.787	 H	1	SAM1	0.000	
50	H5'2	-2.307	26.015	15.856	 H	1	SAM1	0.000	
@<TRIPOS>BOND
1 1 2 1
2 1 36 1
3 1 37 1
4 1 39 1
5 2 3 1
6 2 5 1
7 2 28 1
8 3 4 ar
9 3 17 ar
10 5 6 1
11 5 29 1
12 5 30 1
13 6 7 1
14 6 31 1
15 6 32 1
16 7 8 1
17 7 9 1
18 8 33 1
19 8 34 1
20 8 35 1
21 9 10 1
22 9 49 1
23 9 50 1
24 10 11 1
25 10 12 1
26 10 46 1
27 11 16 1
28 12 13 1
29 12 14 1
30 12 44 1
31 13 45 1
32 14 15 1
33 14 16 1
34 14 42 1
35 15 43 1
36 16 27 1
37 16 41 1
38 18 19 ar
39 18 23 ar
40 19 20 ar
41 19 38 1
42 20 21 ar
43 21 22 ar
44 21 27 ar
45 22 23 ar
46 22 25 ar
47 23 24 1
48 24 47 1
49 24 48 1
50 25 26 ar
51 26 27 ar
52 26 40 1
@<TRIPOS>SUBSTRUCTURE
1	SAM1	1	GROUP	1 A	SAM
