# created with PyMOL 2.5.0
@<TRIPOS>MOLECULE
7LZD
29 32 1                 
SMALL
USER_CHARGES
@<TRIPOS>ATOM
1	  C1	-11.198	35.284	9.082	C.3	1	YHY1805	0.000	
2	  N2	-9.919	34.898	9.743	N.3	1	YHY1805	0.000	
3	  C3	-9.988	35.221	11.195	C.3	1	YHY1805	0.000	
4	  C4	-9.486	33.489	9.454	C.3	1	YHY1805	0.000	
5	  C5	-8.292	33.087	10.327	C.3	1	YHY1805	0.000	
6	  C6	-7.702	31.731	9.935	C.3	1	YHY1805	0.000	
7	  N7	-7.537	31.446	8.495	N.pl3	1	YHY1805	0.000	
8	  C8	-8.674	31.897	7.665	C.3	1	YHY1805	0.000	
9	  C9	-9.030	33.349	7.996	C.3	1	YHY1805	0.000	
10	 C10	-6.970	30.165	8.203	C.2	1	YHY1805	0.000	
11	 C11	-6.004	29.593	9.067	C.2	1	YHY1805	0.000	
12	 C12	-5.398	28.366	8.808	C.2	1	YHY1805	0.000	
13	 C13	-5.760	27.667	7.667	C.2	1	YHY1805	0.000	
14	 C14	-6.724	28.188	6.829	C.2	1	YHY1805	0.000	
15	 C15	-7.316	29.411	7.074	C.2	1	YHY1805	0.000	
16	 N16	-4.429	27.937	9.718	N.pl3	1	YHY1805	0.000	
17	 C17	-4.223	26.648	10.051	C.2	1	YHY1805	0.000	
18	 O18	-4.878	25.718	9.562	O.2	1	YHY1805	0.000	
19	 C19	-3.179	26.326	11.019	C.2	1	YHY1805	0.000	
20	 C20	-2.498	27.148	11.863	C.2	1	YHY1805	0.000	
21	 C21	-1.604	26.340	12.601	C.2	1	YHY1805	0.000	
22	 C22	-1.787	25.014	12.160	C.2	1	YHY1805	0.000	
23	 C23	-1.052	23.961	12.703	C.2	1	YHY1805	0.000	
24	 C24	-1.303	22.563	12.168	C.3	1	YHY1805	0.000	
25	 C25	-0.118	24.222	13.664	C.2	1	YHY1805	0.000	
26	 C26	0.071	25.546	14.107	C.2	1	YHY1805	0.000	
27	 C27	-0.652	26.601	13.585	C.2	1	YHY1805	0.000	
28	 N29	-2.763	25.028	11.212	N.pl3	1	YHY1805	0.000	
29	 F28	-0.457	27.887	14.021	 F	1	YHY1805	0.000	
@<TRIPOS>BOND
1 1 2 1
2 2 3 1
3 2 4 1
4 4 5 1
5 4 9 1
6 5 6 1
7 6 7 1
8 7 8 1
9 7 10 1
10 8 9 1
11 10 11 ar
12 10 15 ar
13 11 12 ar
14 12 13 ar
15 12 16 1
16 13 14 ar
17 14 15 ar
18 16 17 1
19 17 18 2
20 17 19 1
21 19 20 ar
22 19 28 ar
23 20 21 ar
24 21 22 ar
25 21 27 ar
26 22 23 ar
27 22 28 ar
28 23 24 1
29 23 25 ar
30 25 26 ar
31 26 27 ar
32 27 29 1
@<TRIPOS>SUBSTRUCTURE
1	YHY1805	1	GROUP	1 A	YHY
