@<TRIPOS>MOLECULE
7LZD.A
57 60 1 0 0 
SMALL
USER_CHARGES


@<TRIPOS>ATOM
  1 C1     -11.1980    35.2840     9.0820 C.3   1 YHY   0.2630 
  2 H11    -11.4432    36.3145     9.3390 H     1 YHY   0.0800 
  3 H12    -11.9964    34.6248     9.4226 H     1 YHY   0.0800 
  4 H13    -11.0897    35.1950     8.0011 H     1 YHY   0.0800 
  5 N2      -9.9190    34.8980     9.7430 N.4   1 YHY  -0.9590 
  6 H2      -9.1796    35.4526     9.3359 H     1 YHY   0.4500 
  7 C3      -9.9880    35.2210    11.1950 C.3   1 YHY   0.2630 
  8 H31    -10.3077    36.2553    11.3223 H     1 YHY   0.0800 
  9 H32     -9.0040    35.0869    11.6442 H     1 YHY   0.0800 
 10 H33    -10.7029    34.5572    11.6813 H     1 YHY   0.0800 
 11 C4      -9.4860    33.4890     9.4540 C.3   1 YHY   0.4230 
 12 H4     -10.3457    32.8513     9.6596 H     1 YHY   0.0800 
 13 C5      -8.2920    33.0870    10.3270 C.3   1 YHY  -0.1600 
 14 H51     -8.6206    33.0370    11.3651 H     1 YHY   0.0800 
 15 H52     -7.5164    33.8463    10.2276 H     1 YHY   0.0800 
 16 C6      -7.7020    31.7310     9.9350 C.3   1 YHY   0.2091 
 17 H61     -8.3539    30.9607    10.3470 H     1 YHY   0.0800 
 18 H62     -6.7172    31.6585    10.3964 H     1 YHY   0.0800 
 19 N7      -7.5370    31.4460     8.4950 N.pl3 1 YHY  -0.8382 
 20 C8      -8.6740    31.8970     7.6650 C.3   1 YHY   0.2091 
 21 H81     -9.5373    31.2612     7.8616 H     1 YHY   0.0800 
 22 H82     -8.4017    31.8245     6.6121 H     1 YHY   0.0800 
 23 C9      -9.0300    33.3490     7.9960 C.3   1 YHY  -0.1600 
 24 H91     -8.1526    33.9757     7.8360 H     1 YHY   0.0800 
 25 H92     -9.8353    33.6766     7.3385 H     1 YHY   0.0800 
 26 C10     -6.9700    30.1650     8.2030 C.ar  1 YHY   0.1000 
 27 C11     -6.0040    29.5930     9.0670 C.ar  1 YHY  -0.1500 
 28 H11     -5.7264    30.1297     9.9621 H     1 YHY   0.1500 
 29 C12     -5.3980    28.3660     8.8080 C.ar  1 YHY   0.1170 
 30 C13     -5.7600    27.6670     7.6670 C.ar  1 YHY  -0.1500 
 31 H13     -5.2910    26.7220     7.4359 H     1 YHY   0.1500 
 32 C14     -6.7240    28.1880     6.8290 C.ar  1 YHY  -0.1500 
 33 H14     -7.0236    27.6241     5.9580 H     1 YHY   0.1500 
 34 C15     -7.3160    29.4110     7.0740 C.ar  1 YHY  -0.1500 
 35 H15     -8.0561    29.7917     6.3858 H     1 YHY   0.1500 
 36 N16     -4.4290    27.9370     9.7180 N.am  1 YHY  -0.5470 
 37 H16     -3.8461    28.6373    10.1538 H     1 YHY   0.3700 
 38 C17     -4.2230    26.6480    10.0510 C.2   1 YHY   0.7150 
 39 O18     -4.8780    25.7180     9.5620 O.2   1 YHY  -0.5700 
 40 C19     -3.1790    26.3260    11.0190 C.2   1 YHY  -0.2366 
 41 C20     -2.4980    27.1480    11.8630 C.2   1 YHY  -0.1500 
 42 H20     -2.6183    28.2176    11.9521 H     1 YHY   0.1500 
 43 C21     -1.6040    26.3400    12.6010 C.ar  1 YHY   0.0000 
 44 C22     -1.7870    25.0140    12.1600 C.ar  1 YHY  -0.1516 
 45 C23     -1.0520    23.9610    12.7030 C.ar  1 YHY  -0.1435 
 46 C24     -1.3030    22.5630    12.1680 C.3   1 YHY  -0.0965 
 47 H241    -2.0884    22.5985    11.4130 H     1 YHY   0.0800 
 48 H242    -1.6135    21.9116    12.9850 H     1 YHY   0.0800 
 49 H243    -0.3874    22.1749    11.7218 H     1 YHY   0.0800 
 50 C25     -0.1180    24.2220    13.6640 C.ar  1 YHY  -0.1500 
 51 H25      0.4717    23.4193    14.0816 H     1 YHY   0.1500 
 52 C26      0.0710    25.5460    14.1070 C.ar  1 YHY  -0.1500 
 53 H26      0.8024    25.7418    14.8771 H     1 YHY   0.1500 
 54 C27     -0.6520    26.6010    13.5850 C.ar  1 YHY   0.1900 
 55 N29     -2.7630    25.0280    11.2120 N.pl3 1 YHY   0.0332 
 56 H29     -3.1236    24.2178    10.7286 H     1 YHY   0.2700 
 57 F28     -0.4570    27.8870    14.0210 F     1 YHY  -0.1900 
@<TRIPOS>BOND
  1   1   2  1   
  2   1   3  1   
  3   1   4  1   
  4   1   5  1   
  5   5   6  1   
  6   5   7  1   
  7   5  11  1   
  8   7   8  1   
  9   7   9  1   
 10   7  10  1   
 11  11  12  1   
 12  11  13  1   
 13  11  23  1   
 14  13  14  1   
 15  13  15  1   
 16  13  16  1   
 17  16  17  1   
 18  16  18  1   
 19  16  19  1   
 20  19  20  1   
 21  19  26  1   
 22  20  21  1   
 23  20  22  1   
 24  20  23  1   
 25  23  24  1   
 26  23  25  1   
 27  26  27  ar  
 28  26  34  ar  
 29  27  28  1   
 30  27  29  ar  
 31  29  30  ar  
 32  29  36  1   
 33  30  31  1   
 34  30  32  ar  
 35  32  33  1   
 36  32  34  ar  
 37  34  35  1   
 38  36  37  1   
 39  36  38  am  
 40  38  39  2   
 41  38  40  1   
 42  40  41  2   
 43  40  55  1   
 44  41  42  1   
 45  41  43  1   
 46  43  44  ar  
 47  43  54  ar  
 48  44  45  ar  
 49  44  55  1   
 50  45  46  1   
 51  45  50  ar  
 52  46  47  1   
 53  46  48  1   
 54  46  49  1   
 55  50  51  1   
 56  50  52  ar  
 57  52  53  1   
 58  52  54  ar  
 59  54  57  1   
 60  55  56  1   
@<TRIPOS>SUBSTRUCTURE
  1 YHY  36 GROUP 4 A **** 0

# MOE 2022.02 (io_trps.svl 2020.11)
