# created with PyMOL 2.5.0
@<TRIPOS>MOLECULE
2G72
21 23 1                 
SMALL
USER_CHARGES
@<TRIPOS>ATOM
1	  C1	28.598	42.865	18.684	C.3	1	F214001	0.000	
2	  N1	26.392	44.043	12.511	N.3	1	F214001	0.000	
3	  O1	27.717	42.084	13.409	O.2	1	F214001	0.000	
4	  S1	26.733	43.138	13.822	S.o2	1	F214001	0.000	
5	  N2	29.423	43.541	19.701	N.3	1	F214001	0.000	
6	  O2	25.519	42.496	14.216	O.2	1	F214001	0.000	
7	  S2	25.994	46.079	10.316	S.3	1	F214001	0.000	
8	  C3	29.020	44.941	19.903	C.3	1	F214001	0.000	
9	  C4	29.300	45.755	18.639	C.3	1	F214001	0.000	
10	  C5	28.249	45.887	16.354	C.2	1	F214001	0.000	
11	  C6	27.657	45.315	15.233	C.2	1	F214001	0.000	
12	  C7	27.421	43.945	15.213	C.2	1	F214001	0.000	
13	  C8	27.766	43.162	16.312	C.2	1	F214001	0.000	
14	  C9	28.351	43.729	17.441	C.2	1	F214001	0.000	
15	 C10	28.599	45.100	17.448	C.2	1	F214001	0.000	
16	 C11	29.794	45.577	21.060	C.3	1	F214001	0.000	
17	 C12	25.419	45.108	12.805	C.3	1	F214001	0.000	
18	 C13	24.724	45.490	11.493	C.3	1	F214001	0.000	
19	 C14	27.621	44.547	11.875	C.3	1	F214001	0.000	
20	 C15	27.325	44.826	10.397	C.3	1	F214001	0.000	
21	  F1	29.153	45.288	22.254	 F	1	F214001	0.000	
@<TRIPOS>BOND
1 1 5 1
2 1 14 1
3 2 4 1
4 2 17 1
5 2 19 1
6 3 4 2
7 4 6 2
8 4 12 1
9 5 8 1
10 7 18 1
11 7 20 1
12 8 9 1
13 8 16 1
14 9 15 1
15 10 11 ar
16 10 15 ar
17 11 12 ar
18 12 13 ar
19 13 14 ar
20 14 15 ar
21 16 21 1
22 17 18 1
23 19 20 1
@<TRIPOS>SUBSTRUCTURE
1	F214001	1	GROUP	1 A	F21
