# created with PyMOL 2.5.2
@<TRIPOS>MOLECULE
protonated
41 43 1                 
SMALL
USER_CHARGES
@<TRIPOS>ATOM
1	  C1	28.598	42.865	18.684	C.3	1	F211	0.000	
2	  N1	26.392	44.043	12.511	N.3	1	F211	0.000	
3	  O1	27.717	42.084	13.409	O.3	1	F211	0.000	
4	  S1	26.733	43.138	13.822	S.O2	1	F211	0.000	
5	  N2	29.423	43.541	19.701	N.3	1	F211	0.000	
6	  O2	25.519	42.496	14.216	O.3	1	F211	0.000	
7	  S2	25.994	46.079	10.316	S.3	1	F211	0.000	
8	  C3	29.020	44.941	19.903	C.3	1	F211	0.000	
9	  C4	29.300	45.755	18.639	C.3	1	F211	0.000	
10	  C5	28.249	45.887	16.354	C.3	1	F211	0.000	
11	  C6	27.657	45.315	15.233	C.3	1	F211	0.000	
12	  C7	27.421	43.945	15.213	C.3	1	F211	0.000	
13	  C8	27.766	43.162	16.312	C.3	1	F211	0.000	
14	  C9	28.351	43.729	17.441	C.3	1	F211	0.000	
15	 C10	28.599	45.100	17.448	C.3	1	F211	0.000	
16	 C11	29.794	45.577	21.060	C.3	1	F211	0.000	
17	 C12	25.419	45.108	12.805	C.3	1	F211	0.000	
18	 C13	24.724	45.490	11.493	C.3	1	F211	0.000	
19	 C14	27.621	44.547	11.875	C.3	1	F211	0.000	
20	 C15	27.325	44.826	10.397	C.3	1	F211	0.000	
21	  F1	29.153	45.288	22.254	 F	1	F211	0.000	
22	  H3	27.955	44.945	20.133	 H	1	F211	0.000	
23	  H5	28.439	46.950	16.376	 H	1	F211	0.000	
24	  H6	27.384	45.928	14.387	 H	1	F211	0.000	
25	  H8	27.577	42.099	16.288	 H	1	F211	0.000	
26	 H11	27.635	42.613	19.129	 H	1	F211	0.000	
27	 H12	29.106	41.951	18.376	 H	1	F211	0.000	
28	 H21	30.388	43.520	19.403	 H	1	F211	0.000	
29	 H22	29.330	43.046	20.577	 H	1	F211	0.000	
30	 H41	30.374	45.786	18.457	 H	1	F211	0.000	
31	 H42	28.924	46.770	18.769	 H	1	F211	0.000	
32	H111	29.834	46.657	20.921	 H	1	F211	0.000	
33	H112	30.807	45.176	21.084	 H	1	F211	0.000	
34	H121	25.934	45.976	13.217	 H	1	F211	0.000	
35	H122	24.682	44.748	13.523	 H	1	F211	0.000	
36	H131	24.215	44.620	11.080	 H	1	F211	0.000	
37	H132	23.998	46.282	11.678	 H	1	F211	0.000	
38	H141	28.410	43.800	11.957	 H	1	F211	0.000	
39	H142	27.939	45.467	12.366	 H	1	F211	0.000	
40	H151	28.221	45.205	9.905	 H	1	F211	0.000	
41	H152	27.001	43.909	9.905	 H	1	F211	0.000	
@<TRIPOS>BOND
1 1 5 1
2 1 14 1
3 1 26 1
4 1 27 1
5 2 4 1
6 2 17 1
7 2 19 1
8 3 4 1
9 4 6 1
10 4 12 1
11 5 8 1
12 5 28 1
13 5 29 1
14 7 18 1
15 7 20 1
16 8 9 1
17 8 16 1
18 8 22 1
19 9 15 1
20 9 30 1
21 9 31 1
22 10 11 1
23 10 15 1
24 10 23 1
25 11 12 1
26 11 24 1
27 12 13 1
28 13 14 1
29 13 25 1
30 14 15 1
31 16 21 1
32 16 32 1
33 16 33 1
34 17 18 1
35 17 34 1
36 17 35 1
37 18 36 1
38 18 37 1
39 19 20 1
40 19 38 1
41 19 39 1
42 20 40 1
43 20 41 1
@<TRIPOS>SUBSTRUCTURE
1	F211	1	GROUP	1 B	F21
