@<TRIPOS>MOLECULE
2G72.A
41 43 1 0 0 
SMALL
USER_CHARGES


@<TRIPOS>ATOM
  1 C1      28.5980    42.8650    18.6840 C.3   1 F   0.4865 
  2 H11     27.6353    42.6134    19.1290 H     1 F   0.0800 
  3 H12     29.1059    41.9510    18.3763 H     1 F   0.0800 
  4 N1      26.3920    44.0430    12.5110 N.am  1 F  -0.8494 
  5 O1      27.7170    42.0840    13.4090 O.2   1 F  -0.6500 
  6 S1      26.7330    43.1380    13.8220 S.o2  1 F   1.4470 
  7 N2      29.4230    43.5410    19.7010 N.4   1 F  -0.9060 
  8 H21     30.3879    43.5201    19.4034 H     1 F   0.4500 
  9 H22     29.3299    43.0462    20.5766 H     1 F   0.4500 
 10 O2      25.5190    42.4960    14.2160 O.2   1 F  -0.6500 
 11 S2      25.9940    46.0790    10.3160 S.3   1 F  -0.4600 
 12 C3      29.0200    44.9410    19.9030 C.3   1 F   0.4230 
 13 H3      27.9546    44.9455    20.1330 H     1 F   0.0800 
 14 C4      29.3000    45.7550    18.6390 C.3   1 F  -0.0165 
 15 H41     30.3742    45.7860    18.4568 H     1 F   0.0800 
 16 H42     28.9242    46.7698    18.7692 H     1 F   0.0800 
 17 C5      28.2490    45.8870    16.3540 C.ar  1 F  -0.1500 
 18 H5      28.4387    46.9500    16.3761 H     1 F   0.1500 
 19 C6      27.6570    45.3150    15.2330 C.ar  1 F  -0.1500 
 20 H6      27.3836    45.9284    14.3872 H     1 F   0.1500 
 21 C7      27.4210    43.9450    15.2130 C.ar  1 F  -0.0090 
 22 C8      27.7660    43.1620    16.3120 C.ar  1 F  -0.1500 
 23 H8      27.5769    42.0990    16.2880 H     1 F   0.1500 
 24 C9      28.3510    43.7290    17.4410 C.ar  1 F  -0.1435 
 25 C10     28.5990    45.1000    17.4480 C.ar  1 F  -0.1435 
 26 C11     29.7940    45.5770    21.0600 C.3   1 F   0.1800 
 27 H111    29.8344    46.6573    20.9207 H     1 F   0.0800 
 28 H112    30.8072    45.1757    21.0843 H     1 F   0.0800 
 29 C12     25.4190    45.1080    12.8050 C.3   1 F   0.1957 
 30 H121    25.9338    45.9759    13.2172 H     1 F   0.0800 
 31 H122    24.6820    44.7479    13.5228 H     1 F   0.0800 
 32 C13     24.7240    45.4900    11.4930 C.3   1 F   0.0700 
 33 H131    24.2145    44.6196    11.0795 H     1 F   0.0800 
 34 H132    23.9983    46.2819    11.6780 H     1 F   0.0800 
 35 C14     27.6210    44.5470    11.8750 C.3   1 F   0.1957 
 36 H141    28.4104    43.7999    11.9572 H     1 F   0.0800 
 37 H142    27.9386    45.4667    12.3663 H     1 F   0.0800 
 38 C15     27.3250    44.8260    10.3970 C.3   1 F   0.0700 
 39 H151    28.2208    45.2051     9.9052 H     1 F   0.0800 
 40 H152    27.0007    43.9091     9.9048 H     1 F   0.0800 
 41 F1      29.1530    45.2880    22.2540 F     1 F  -0.3400 
@<TRIPOS>BOND
  1   1   2  1   
  2   1   3  1   
  3   1   7  1   
  4   1  24  1   
  5   4   6  am  
  6   4  29  1   
  7   4  35  1   
  8   5   6  2   
  9   6  10  2   
 10   6  21  1   
 11   7   8  1   
 12   7   9  1   
 13   7  12  1   
 14  11  32  1   
 15  11  38  1   
 16  12  13  1   
 17  12  14  1   
 18  12  26  1   
 19  14  15  1   
 20  14  16  1   
 21  14  25  1   
 22  17  18  1   
 23  17  19  ar  
 24  17  25  ar  
 25  19  20  1   
 26  19  21  ar  
 27  21  22  ar  
 28  22  23  1   
 29  22  24  ar  
 30  24  25  ar  
 31  26  27  1   
 32  26  28  1   
 33  26  41  1   
 34  29  30  1   
 35  29  31  1   
 36  29  32  1   
 37  32  33  1   
 38  32  34  1   
 39  35  36  1   
 40  35  37  1   
 41  35  38  1   
 42  38  39  1   
 43  38  40  1   
@<TRIPOS>SUBSTRUCTURE
  1 F  21 GROUP 4 A **** 0

# MOE 2022.02 (io_trps.svl 2020.11)
