@<TRIPOS>MOLECULE
2G72.A
51 53 1 0 0 
SMALL
USER_CHARGES


@<TRIPOS>ATOM
  1 N       26.4310    52.6510    18.1750 N.4   1 SAM  -0.8530 
  2 H1      26.0817    51.9592    18.8227 H     1 SAM   0.4500 
  3 H2      25.7413    52.8178    17.4562 H     1 SAM   0.4500 
  4 H3      26.6168    53.5118    18.6695 H     1 SAM   0.4500 
  5 CA      27.6580    52.1680    17.5660 C.3   1 SAM   0.3170 
  6 HA      28.0258    52.9216    16.8696 H     1 SAM   0.0800 
  7 C       27.3960    50.8970    16.7560 C.2   1 SAM   0.9060 
  8 O       26.2160    50.6750    16.4010 O.co2 1 SAM  -0.9000 
  9 CB      28.7540    51.9620    18.6400 C.3   1 SAM  -0.1600 
 10 HB1     28.9284    52.9250    19.1199 H     1 SAM   0.0800 
 11 HB2     29.6608    51.6425    18.1265 H     1 SAM   0.0800 
 12 CG      28.4640    50.9350    19.7520 C.3   1 SAM  -0.1525 
 13 HG1     28.1456    49.9996    19.2918 H     1 SAM   0.0800 
 14 HG2     27.6641    51.3193    20.3850 H     1 SAM   0.0800 
 15 SD      29.9470    50.6070    20.8010 S.3   1 SAM   0.9775 
 16 CE      30.1830    48.8450    20.9830 C.3   1 SAM  -0.2325 
 17 HE1     30.3310    48.3950    20.0013 H     1 SAM   0.0800 
 18 HE2     29.3030    48.4073    21.4544 H     1 SAM   0.0800 
 19 HE3     31.0589    48.6580    21.6043 H     1 SAM   0.0800 
 20 C5'     29.7000    51.3280    22.4890 C.3   1 SAM  -0.1525 
 21 H5'1    30.4595    50.9197    23.1557 H     1 SAM   0.0800 
 22 H5'2    28.7109    51.0427    22.8472 H     1 SAM   0.0800 
 23 C4'     29.8030    52.8390    22.5080 C.3   1 SAM   0.2000 
 24 H4'     29.1320    53.1853    21.7219 H     1 SAM   0.0800 
 25 O4'     29.4040    53.4070    23.7870 O.3   1 SAM  -0.5600 
 26 C3'     31.2360    53.2950    22.2540 C.3   1 SAM   0.2000 
 27 H3'     31.9055    52.5025    21.9194 H     1 SAM   0.0800 
 28 O3'     31.2690    54.2570    21.2080 O.3   1 SAM  -0.6800 
 29 H3'     32.1771    54.5546    21.1158 H     1 SAM   0.4000 
 30 C2'     31.6720    53.8580    23.6040 C.3   1 SAM   0.2000 
 31 H2'     32.1651    53.1149    24.2307 H     1 SAM   0.0800 
 32 O2'     32.6330    54.8790    23.5010 O.3   1 SAM  -0.6800 
 33 H2'     32.2598    55.5749    22.9551 H     1 SAM   0.4000 
 34 C1'     30.3520    54.3860    24.1610 C.3   1 SAM   0.5691 
 35 H1'     30.1745    55.3863    23.7659 H     1 SAM   0.0800 
 36 OXT     28.3560    50.1620    16.4490 O.co2 1 SAM  -0.9000 
 37 N1      27.8050    56.4440    28.1870 N.2   1 SAM  -0.6610 
 38 C2      27.5430    56.4530    26.8500 C.2   1 SAM   0.6010 
 39 H2      26.6521    56.9858    26.5519 H     1 SAM   0.0600 
 40 N3      28.2490    55.8840    25.8450 N.2   1 SAM  -0.6610 
 41 C4      29.3430    55.2450    26.3230 C.2   1 SAM   0.5000 
 42 C5      29.7280    55.1630    27.6500 C.2   1 SAM   0.4500 
 43 C6      28.9200    55.7930    28.6260 C.2   1 SAM   0.6110 
 44 N6      29.1860    55.7830    29.9340 N.2   1 SAM  -0.2000 
 45 H62     28.5670    56.2532    30.5788 H     1 SAM   0.4000 
 46 H61     30.0063    55.3052    30.2789 H     1 SAM   0.4000 
 47 N7      30.9050    54.4520    27.8220 N.2   1 SAM  -0.6960 
 48 C8      31.2280    54.0980    26.6030 C.3   1 SAM   0.4551 
 49 H81     31.2645    53.0096    26.5569 H     1 SAM   0.0800 
 50 H82     32.2131    54.5046    26.3741 H     1 SAM   0.0800 
 51 N9      30.3070    54.5620    25.6190 N.pl3 1 SAM  -0.7882 
@<TRIPOS>BOND
  1   1   2  1   
  2   1   3  1   
  3   1   4  1   
  4   1   5  1   
  5   5   6  1   
  6   5   7  1   
  7   5   9  1   
  8   7   8  ar  
  9   7  36  ar  
 10   9  10  1   
 11   9  11  1   
 12   9  12  1   
 13  12  13  1   
 14  12  14  1   
 15  12  15  1   
 16  15  16  1   
 17  15  20  1   
 18  16  17  1   
 19  16  18  1   
 20  16  19  1   
 21  20  21  1   
 22  20  22  1   
 23  20  23  1   
 24  23  24  1   
 25  23  25  1   
 26  23  26  1   
 27  25  34  1   
 28  26  27  1   
 29  26  28  1   
 30  26  30  1   
 31  28  29  1   
 32  30  31  1   
 33  30  32  1   
 34  30  34  1   
 35  32  33  1   
 36  34  35  1   
 37  34  51  1   
 38  37  38  2   
 39  37  43  1   
 40  38  39  1   
 41  38  40  1   
 42  40  41  2   
 43  41  42  1   
 44  41  51  1   
 45  42  43  1   
 46  42  47  2   
 47  43  44  2   
 48  44  45  1   
 49  44  46  1   
 50  47  48  1   
 51  48  49  1   
 52  48  50  1   
 53  48  51  1   
@<TRIPOS>SUBSTRUCTURE
  1 SAM  25 GROUP 4 A **** 0

# MOE 2022.02 (io_trps.svl 2020.11)
