# created with PyMOL 2.5.0
@<TRIPOS>MOLECULE
2G72
27 29 1                 
SMALL
USER_CHARGES
@<TRIPOS>ATOM
1	   N	26.431	52.651	18.175	N.3	1	SAM2001	0.000	
2	  CA	27.658	52.168	17.566	C.3	1	SAM2001	0.000	
3	   C	27.396	50.897	16.756	C.2	1	SAM2001	0.000	
4	   O	26.216	50.675	16.401	O.co2	1	SAM2001	0.000	
5	  CB	28.754	51.962	18.640	C.3	1	SAM2001	0.000	
6	  CG	28.464	50.935	19.752	C.3	1	SAM2001	0.000	
7	  SD	29.947	50.607	20.801	S.3	1	SAM2001	0.000	
8	  CE	30.183	48.845	20.983	C.3	1	SAM2001	0.000	
9	 C5'	29.700	51.328	22.489	C.3	1	SAM2001	0.000	
10	 C4'	29.803	52.839	22.508	C.3	1	SAM2001	0.000	
11	 O4'	29.404	53.407	23.787	O.3	1	SAM2001	0.000	
12	 C3'	31.236	53.295	22.254	C.3	1	SAM2001	0.000	
13	 O3'	31.269	54.257	21.208	O.3	1	SAM2001	0.000	
14	 C2'	31.672	53.858	23.604	C.3	1	SAM2001	0.000	
15	 O2'	32.633	54.879	23.501	O.3	1	SAM2001	0.000	
16	 C1'	30.352	54.386	24.161	C.3	1	SAM2001	0.000	
17	 OXT	28.356	50.162	16.449	O.co2	1	SAM2001	0.000	
18	  N1	27.805	56.444	28.187	N.2	1	SAM2001	0.000	
19	  C2	27.543	56.453	26.850	C.2	1	SAM2001	0.000	
20	  N3	28.249	55.884	25.845	N.2	1	SAM2001	0.000	
21	  C4	29.343	55.245	26.323	C.2	1	SAM2001	0.000	
22	  C5	29.728	55.163	27.650	C.2	1	SAM2001	0.000	
23	  C6	28.920	55.793	28.626	C.2	1	SAM2001	0.000	
24	  N6	29.186	55.783	29.934	N.pl3	1	SAM2001	0.000	
25	  N7	30.905	54.452	27.822	N.2	1	SAM2001	0.000	
26	  C8	31.228	54.098	26.603	C.2	1	SAM2001	0.000	
27	  N9	30.307	54.562	25.619	N.2	1	SAM2001	0.000	
@<TRIPOS>BOND
1 1 2 1
2 2 3 1
3 2 5 1
4 3 4 ar
5 3 17 ar
6 5 6 1
7 6 7 1
8 7 8 1
9 7 9 1
10 9 10 1
11 10 11 1
12 10 12 1
13 11 16 1
14 12 13 1
15 12 14 1
16 14 15 1
17 14 16 1
18 16 27 1
19 18 19 ar
20 18 23 ar
21 19 20 ar
22 20 21 ar
23 21 22 ar
24 21 27 ar
25 22 23 ar
26 22 25 ar
27 23 24 1
28 25 26 ar
29 26 27 ar
@<TRIPOS>SUBSTRUCTURE
1	SAM2001	1	GROUP	1 A	SAM
