# created with PyMOL 2.4.0
@<TRIPOS>MOLECULE
temp
50 52 1                 
SMALL
USER_CHARGES
@<TRIPOS>ATOM
1	   N	26.431	52.651	18.175	N.4	1	SAM1	0.000	
2	  CA	27.658	52.168	17.566	C.3	1	SAM1	0.000	
3	   C	27.396	50.897	16.756	C.2	1	SAM1	0.000	
4	   O	26.216	50.675	16.401	O.co2	1	SAM1	0.000	
5	  CB	28.754	51.962	18.640	C.3	1	SAM1	0.000	
6	  CG	28.464	50.935	19.752	C.3	1	SAM1	0.000	
7	  SD	29.947	50.607	20.801	S.3	1	SAM1	0.000	
8	  CE	30.183	48.845	20.983	C.3	1	SAM1	0.000	
9	 C5'	29.700	51.328	22.489	C.3	1	SAM1	0.000	
10	 C4'	29.803	52.839	22.508	C.3	1	SAM1	0.000	
11	 O4'	29.404	53.407	23.787	O.3	1	SAM1	0.000	
12	 C3'	31.236	53.295	22.254	C.3	1	SAM1	0.000	
13	 O3'	31.269	54.257	21.208	O.3	1	SAM1	0.000	
14	 C2'	31.672	53.858	23.604	C.3	1	SAM1	0.000	
15	 O2'	32.633	54.879	23.501	O.3	1	SAM1	0.000	
16	 C1'	30.352	54.386	24.161	C.3	1	SAM1	0.000	
17	 OXT	28.356	50.162	16.449	O.co2	1	SAM1	0.000	
18	  N1	27.805	56.444	28.187	N.2	1	SAM1	0.000	
19	  C2	27.543	56.453	26.850	C.2	1	SAM1	0.000	
20	  N3	28.249	55.884	25.845	N.2	1	SAM1	0.000	
21	  C4	29.343	55.245	26.323	C.2	1	SAM1	0.000	
22	  C5	29.728	55.163	27.650	C.2	1	SAM1	0.000	
23	  C6	28.920	55.793	28.626	C.2	1	SAM1	0.000	
24	  N6	29.186	55.783	29.934	N.pl3	1	SAM1	0.000	
25	  N7	30.905	54.452	27.822	N.2	1	SAM1	0.000	
26	  C8	31.228	54.098	26.603	C.2	1	SAM1	0.000	
27	  N9	30.307	54.562	25.619	N.2	1	SAM1	0.000	
28	  HA	28.026	52.922	16.870	 H	1	SAM1	0.000	
29	 HB1	28.928	52.925	19.120	 H	1	SAM1	0.000	
30	 HB2	29.661	51.643	18.126	 H	1	SAM1	0.000	
31	 HG1	28.146	50.000	19.292	 H	1	SAM1	0.000	
32	 HG2	27.664	51.319	20.385	 H	1	SAM1	0.000	
33	 HE1	30.331	48.395	20.001	 H	1	SAM1	0.000	
34	 HE2	29.303	48.407	21.454	 H	1	SAM1	0.000	
35	 HE3	31.059	48.658	21.604	 H	1	SAM1	0.000	
36	  H1	26.082	51.959	18.823	 H	1	SAM1	0.000	
37	  H2	25.741	52.818	17.456	 H	1	SAM1	0.000	
38	  H2	26.652	56.986	26.552	 H	1	SAM1	0.000	
39	  H3	26.617	53.512	18.670	 H	1	SAM1	0.000	
40	  H8	32.105	53.513	26.367	 H	1	SAM1	0.000	
41	 H1'	30.174	55.386	23.766	 H	1	SAM1	0.000	
42	 H2'	32.165	53.115	24.231	 H	1	SAM1	0.000	
43	 H2'	33.417	54.501	23.095	 H	1	SAM1	0.000	
44	 H3'	31.906	52.502	21.919	 H	1	SAM1	0.000	
45	 H3'	32.177	54.555	21.116	 H	1	SAM1	0.000	
46	 H4'	29.132	53.185	21.722	 H	1	SAM1	0.000	
47	 H61	30.006	55.305	30.279	 H	1	SAM1	0.000	
48	 H62	28.567	56.253	30.579	 H	1	SAM1	0.000	
49	H5'1	30.459	50.920	23.156	 H	1	SAM1	0.000	
50	H5'2	28.711	51.043	22.847	 H	1	SAM1	0.000	
@<TRIPOS>BOND
1 1 2 1
2 1 36 1
3 1 37 1
4 1 39 1
5 2 3 1
6 2 5 1
7 2 28 1
8 3 4 ar
9 3 17 ar
10 5 6 1
11 5 29 1
12 5 30 1
13 6 7 1
14 6 31 1
15 6 32 1
16 7 8 1
17 7 9 1
18 8 33 1
19 8 34 1
20 8 35 1
21 9 10 1
22 9 49 1
23 9 50 1
24 10 11 1
25 10 12 1
26 10 46 1
27 11 16 1
28 12 13 1
29 12 14 1
30 12 44 1
31 13 45 1
32 14 15 1
33 14 16 1
34 14 42 1
35 15 43 1
36 16 27 1
37 16 41 1
38 18 19 ar
39 18 23 ar
40 19 20 ar
41 19 38 1
42 20 21 ar
43 21 22 ar
44 21 27 ar
45 22 23 ar
46 22 25 ar
47 23 24 1
48 24 47 1
49 24 48 1
50 25 26 ar
51 26 27 ar
52 26 40 1
@<TRIPOS>SUBSTRUCTURE
1	SAM1	1	GROUP	1 A	SAM
