# created with PyMOL 2.5.2
@<TRIPOS>MOLECULE
2UYQ
27 29 1                 
SMALL
USER_CHARGES
@<TRIPOS>ATOM
1	   N	-10.202	-30.133	-2.824	N.3	1	SAM601	0.000	
2	  CA	-11.063	-29.628	-3.881	C.3	1	SAM601	0.000	
3	   C	-12.525	-29.956	-3.591	C.2	1	SAM601	0.000	
4	   O	-12.839	-30.508	-2.542	O.co2	1	SAM601	0.000	
5	  CB	-10.655	-30.199	-5.243	C.3	1	SAM601	0.000	
6	  CG	-9.488	-29.459	-5.873	C.3	1	SAM601	0.000	
7	  SD	-10.048	-27.806	-6.342	S.3	1	SAM601	0.000	
8	  CE	-9.374	-27.577	-8.002	C.3	1	SAM601	0.000	
9	 C5'	-8.885	-26.713	-5.475	C.3	1	SAM601	0.000	
10	 C4'	-9.039	-26.646	-3.959	C.3	1	SAM601	0.000	
11	 O4'	-8.478	-27.777	-3.307	O.3	1	SAM601	0.000	
12	 C3'	-8.267	-25.448	-3.433	C.3	1	SAM601	0.000	
13	 O3'	-9.053	-24.279	-3.542	O.3	1	SAM601	0.000	
14	 C2'	-7.914	-25.873	-2.021	C.3	1	SAM601	0.000	
15	 O2'	-9.028	-25.744	-1.163	O.3	1	SAM601	0.000	
16	 C1'	-7.733	-27.381	-2.169	C.3	1	SAM601	0.000	
17	 OXT	-13.422	-29.667	-4.391	O.co2	1	SAM601	0.000	
18	  N1	-3.172	-28.450	0.188	N.2	1	SAM601	0.000	
19	  C2	-4.320	-27.932	0.735	C.2	1	SAM601	0.000	
20	  N3	-5.420	-27.707	-0.051	N.2	1	SAM601	0.000	
21	  C4	-5.398	-28.011	-1.372	C.2	1	SAM601	0.000	
22	  C5	-4.253	-28.534	-1.951	C.2	1	SAM601	0.000	
23	  C6	-3.131	-28.761	-1.158	C.2	1	SAM601	0.000	
24	  N6	-2.003	-29.254	-1.654	N.pl3	1	SAM601	0.000	
25	  N7	-4.503	-28.700	-3.271	N.2	1	SAM601	0.000	
26	  C8	-5.772	-28.299	-3.527	C.2	1	SAM601	0.000	
27	  N9	-6.340	-27.860	-2.347	N.2	1	SAM601	0.000	
@<TRIPOS>BOND
1 1 2 1
2 2 3 1
3 2 5 1
4 3 4 ar
5 3 17 ar
6 5 6 1
7 6 7 1
8 7 8 1
9 7 9 1
10 9 10 1
11 10 11 1
12 10 12 1
13 11 16 1
14 12 13 1
15 12 14 1
16 14 15 1
17 14 16 1
18 16 27 1
19 18 19 ar
20 18 23 ar
21 19 20 ar
22 20 21 ar
23 21 22 ar
24 21 27 ar
25 22 23 ar
26 22 25 ar
27 23 24 1
28 25 26 ar
29 26 27 ar
@<TRIPOS>SUBSTRUCTURE
1	SAM601	1	GROUP	1 D	SAM
