@<TRIPOS>MOLECULE
2UYQ.D
51 53 1 0 0 
SMALL
USER_CHARGES


@<TRIPOS>ATOM
  1 N      -10.2020   -30.1330    -2.8240 N.4   1 SAM  -0.8530 
  2 H1     -10.2885   -31.1379    -2.7706 H     1 SAM   0.4500 
  3 H2     -10.4763   -29.7241    -1.9421 H     1 SAM   0.4500 
  4 H3      -9.2430   -29.8879    -3.0250 H     1 SAM   0.4500 
  5 CA     -11.0630   -29.6280    -3.8810 C.3   1 SAM   0.3170 
  6 HA     -10.9478   -28.5446    -3.9136 H     1 SAM   0.0800 
  7 C      -12.5250   -29.9560    -3.5910 C.2   1 SAM   0.9060 
  8 O      -12.8390   -30.5080    -2.5420 O.co2 1 SAM  -0.9000 
  9 CB     -10.6550   -30.1990    -5.2430 C.3   1 SAM  -0.1600 
 10 HB1    -11.5101   -30.1358    -5.9160 H     1 SAM   0.0800 
 11 HB2    -10.3730   -31.2436    -5.1110 H     1 SAM   0.0800 
 12 CG      -9.4880   -29.4590    -5.8730 C.3   1 SAM  -0.1525 
 13 HG1     -9.1454   -29.9964    -6.7573 H     1 SAM   0.0800 
 14 HG2     -8.6709   -29.3813    -5.1558 H     1 SAM   0.0800 
 15 SD     -10.0480   -27.8060    -6.3420 S.3   1 SAM   0.9775 
 16 CE      -9.3740   -27.5770    -8.0020 C.3   1 SAM  -0.2325 
 17 HE1     -9.9492   -28.1703    -8.7127 H     1 SAM   0.0800 
 18 HE2     -8.3327   -27.8988    -8.0189 H     1 SAM   0.0800 
 19 HE3     -9.4333   -26.5237    -8.2761 H     1 SAM   0.0800 
 20 C5'     -8.8850   -26.7130    -5.4750 C.3   1 SAM  -0.1525 
 21 H5'1    -9.0165   -25.7053    -5.8691 H     1 SAM   0.0800 
 22 H5'2    -7.8748   -27.0595    -5.6932 H     1 SAM   0.0800 
 23 C4'     -9.0390   -26.6460    -3.9590 C.3   1 SAM   0.2000 
 24 H4'    -10.1089   -26.5913    -3.7578 H     1 SAM   0.0800 
 25 O4'     -8.4780   -27.7770    -3.3070 O.3   1 SAM  -0.5600 
 26 C3'     -8.2670   -25.4480    -3.4330 C.3   1 SAM   0.2000 
 27 H3'     -7.3640   -25.1858    -3.9844 H     1 SAM   0.0800 
 28 O3'     -9.0530   -24.2790    -3.5420 O.3   1 SAM  -0.6800 
 29 H3'     -8.5587   -23.5587    -3.1439 H     1 SAM   0.4000 
 30 C2'     -7.9140   -25.8730    -2.0210 C.3   1 SAM   0.2000 
 31 H2'     -7.0738   -25.2994    -1.6297 H     1 SAM   0.0800 
 32 O2'     -9.0280   -25.7440    -1.1630 O.3   1 SAM  -0.6800 
 33 H2'     -9.2550   -24.8122    -1.1202 H     1 SAM   0.4000 
 34 C1'     -7.7330   -27.3810    -2.1690 C.3   1 SAM   0.5691 
 35 H1'     -8.0678   -27.8199    -1.2291 H     1 SAM   0.0800 
 36 OXT    -13.4220   -29.6670    -4.3910 O.co2 1 SAM  -0.9000 
 37 N1      -3.1720   -28.4500     0.1880 N.2   1 SAM  -0.6610 
 38 C2      -4.3200   -27.9320     0.7350 C.2   1 SAM   0.6010 
 39 H2      -4.3563   -27.7008     1.7893 H     1 SAM   0.0600 
 40 N3      -5.4200   -27.7070    -0.0510 N.2   1 SAM  -0.6610 
 41 C4      -5.3980   -28.0110    -1.3720 C.2   1 SAM   0.5000 
 42 C5      -4.2530   -28.5340    -1.9510 C.2   1 SAM   0.4500 
 43 C6      -3.1310   -28.7610    -1.1580 C.2   1 SAM   0.6110 
 44 N6      -2.0030   -29.2540    -1.6540 N.2   1 SAM  -0.2000 
 45 H62     -1.2089   -29.4056    -1.0486 H     1 SAM   0.4000 
 46 H61     -1.9387   -29.4775    -2.6368 H     1 SAM   0.4000 
 47 N7      -4.5030   -28.7000    -3.2710 N.2   1 SAM  -0.6960 
 48 C8      -5.7720   -28.2990    -3.5270 C.3   1 SAM   0.4551 
 49 H81     -6.3485   -29.1346    -3.9239 H     1 SAM   0.0800 
 50 H82     -5.7613   -27.4871    -4.2542 H     1 SAM   0.0800 
 51 N9      -6.3400   -27.8600    -2.3470 N.pl3 1 SAM  -0.7882 
@<TRIPOS>BOND
  1   1   2  1   
  2   1   3  1   
  3   1   4  1   
  4   1   5  1   
  5   5   6  1   
  6   5   7  1   
  7   5   9  1   
  8   7   8  ar  
  9   7  36  ar  
 10   9  10  1   
 11   9  11  1   
 12   9  12  1   
 13  12  13  1   
 14  12  14  1   
 15  12  15  1   
 16  15  16  1   
 17  15  20  1   
 18  16  17  1   
 19  16  18  1   
 20  16  19  1   
 21  20  21  1   
 22  20  22  1   
 23  20  23  1   
 24  23  24  1   
 25  23  25  1   
 26  23  26  1   
 27  25  34  1   
 28  26  27  1   
 29  26  28  1   
 30  26  30  1   
 31  28  29  1   
 32  30  31  1   
 33  30  32  1   
 34  30  34  1   
 35  32  33  1   
 36  34  35  1   
 37  34  51  1   
 38  37  38  2   
 39  37  43  1   
 40  38  39  1   
 41  38  40  1   
 42  40  41  2   
 43  41  42  1   
 44  41  51  1   
 45  42  43  1   
 46  42  47  2   
 47  43  44  2   
 48  44  45  1   
 49  44  46  1   
 50  47  48  1   
 51  48  49  1   
 52  48  50  1   
 53  48  51  1   
@<TRIPOS>SUBSTRUCTURE
  1 SAM  25 GROUP 4 D **** 0

# MOE 2022.02 (io_trps.svl 2020.11)
