# created with PyMOL 2.5.0
@<TRIPOS>MOLECULE
2UYQ
17 19 1                 
SMALL
USER_CHARGES
@<TRIPOS>ATOM
1	 C4'	-9.462	-26.821	-3.575	C.3	1	SAM1311	0.000	
2	 O4'	-8.455	-27.765	-3.192	O.3	1	SAM1311	0.000	
3	 C3'	-8.840	-25.441	-3.367	C.3	1	SAM1311	0.000	
4	 O3'	-9.277	-24.906	-2.138	O.3	1	SAM1311	0.000	
5	 C2'	-7.344	-25.691	-3.251	C.3	1	SAM1311	0.000	
6	 O2'	-6.657	-24.672	-2.517	O.3	1	SAM1311	0.000	
7	 C1'	-7.407	-27.039	-2.552	C.3	1	SAM1311	0.000	
8	  N1	-3.286	-28.570	0.292	N.2	1	SAM1311	0.000	
9	  C2	-4.415	-27.904	0.751	C.2	1	SAM1311	0.000	
10	  N3	-5.418	-27.586	-0.149	N.2	1	SAM1311	0.000	
11	  C4	-5.291	-27.908	-1.476	C.2	1	SAM1311	0.000	
12	  C5	-4.159	-28.567	-1.944	C.2	1	SAM1311	0.000	
13	  C6	-3.139	-28.900	-1.045	C.2	1	SAM1311	0.000	
14	  N6	-2.035	-29.535	-1.464	N.pl3	1	SAM1311	0.000	
15	  N7	-4.312	-28.755	-3.289	N.2	1	SAM1311	0.000	
16	  C8	-5.502	-28.250	-3.685	C.2	1	SAM1311	0.000	
17	  N9	-6.107	-27.718	-2.579	N.2	1	SAM1311	0.000	
@<TRIPOS>BOND
1 1 2 1
2 1 3 1
3 2 7 1
4 3 4 1
5 3 5 1
6 5 6 1
7 5 7 1
8 7 17 1
9 8 9 ar
10 8 13 ar
11 9 10 ar
12 10 11 ar
13 11 12 ar
14 11 17 ar
15 12 13 ar
16 12 15 ar
17 13 14 1
18 15 16 ar
19 16 17 ar
@<TRIPOS>SUBSTRUCTURE
1	SAM1311	1	GROUP	1 A	SAM
