# created with PyMOL 2.4.0
@<TRIPOS>MOLECULE
temp
50 52 1                 
SMALL
USER_CHARGES
@<TRIPOS>ATOM
1	   N	-10.202	-30.133	-2.824	N.4	1	SAM1	0.000	
2	  CA	-11.063	-29.628	-3.881	C.3	1	SAM1	0.000	
3	   C	-12.525	-29.956	-3.591	C.2	1	SAM1	0.000	
4	   O	-12.839	-30.508	-2.542	O.co2	1	SAM1	0.000	
5	  CB	-10.655	-30.199	-5.243	C.3	1	SAM1	0.000	
6	  CG	-9.488	-29.459	-5.873	C.3	1	SAM1	0.000	
7	  SD	-10.048	-27.806	-6.342	S.3	1	SAM1	0.000	
8	  CE	-9.374	-27.577	-8.002	C.3	1	SAM1	0.000	
9	 C5'	-8.885	-26.713	-5.475	C.3	1	SAM1	0.000	
10	 C4'	-9.039	-26.646	-3.959	C.3	1	SAM1	0.000	
11	 O4'	-8.478	-27.777	-3.307	O.3	1	SAM1	0.000	
12	 C3'	-8.267	-25.448	-3.433	C.3	1	SAM1	0.000	
13	 O3'	-9.053	-24.279	-3.542	O.3	1	SAM1	0.000	
14	 C2'	-7.914	-25.873	-2.021	C.3	1	SAM1	0.000	
15	 O2'	-9.028	-25.744	-1.163	O.3	1	SAM1	0.000	
16	 C1'	-7.733	-27.381	-2.169	C.3	1	SAM1	0.000	
17	 OXT	-13.422	-29.667	-4.391	O.co2	1	SAM1	0.000	
18	  N1	-3.172	-28.450	0.188	N.2	1	SAM1	0.000	
19	  C2	-4.320	-27.932	0.735	C.2	1	SAM1	0.000	
20	  N3	-5.420	-27.707	-0.051	N.2	1	SAM1	0.000	
21	  C4	-5.398	-28.011	-1.372	C.2	1	SAM1	0.000	
22	  C5	-4.253	-28.534	-1.951	C.2	1	SAM1	0.000	
23	  C6	-3.131	-28.761	-1.158	C.2	1	SAM1	0.000	
24	  N6	-2.003	-29.254	-1.654	N.pl3	1	SAM1	0.000	
25	  N7	-4.503	-28.700	-3.271	N.2	1	SAM1	0.000	
26	  C8	-5.772	-28.299	-3.527	C.2	1	SAM1	0.000	
27	  N9	-6.340	-27.860	-2.347	N.2	1	SAM1	0.000	
28	  HA	-10.948	-28.545	-3.914	 H	1	SAM1	0.000	
29	 HB1	-11.510	-30.136	-5.916	 H	1	SAM1	0.000	
30	 HB2	-10.373	-31.244	-5.111	 H	1	SAM1	0.000	
31	 HG1	-9.145	-29.996	-6.757	 H	1	SAM1	0.000	
32	 HG2	-8.671	-29.381	-5.156	 H	1	SAM1	0.000	
33	 HE1	-9.949	-28.170	-8.713	 H	1	SAM1	0.000	
34	 HE2	-8.333	-27.899	-8.019	 H	1	SAM1	0.000	
35	 HE3	-9.433	-26.524	-8.276	 H	1	SAM1	0.000	
36	  H1	-10.288	-31.138	-2.771	 H	1	SAM1	0.000	
37	  H2	-10.476	-29.724	-1.942	 H	1	SAM1	0.000	
38	  H2	-4.356	-27.701	1.789	 H	1	SAM1	0.000	
39	  H3	-9.243	-29.888	-3.025	 H	1	SAM1	0.000	
40	  H8	-6.258	-28.319	-4.492	 H	1	SAM1	0.000	
41	 H1'	-8.068	-27.820	-1.229	 H	1	SAM1	0.000	
42	 H2'	-7.074	-25.299	-1.630	 H	1	SAM1	0.000	
43	 H2'	-9.255	-24.812	-1.120	 H	1	SAM1	0.000	
44	 H3'	-7.364	-25.186	-3.984	 H	1	SAM1	0.000	
45	 H3'	-8.559	-23.559	-3.144	 H	1	SAM1	0.000	
46	 H4'	-10.109	-26.591	-3.758	 H	1	SAM1	0.000	
47	 H61	-1.939	-29.478	-2.637	 H	1	SAM1	0.000	
48	 H62	-1.209	-29.406	-1.049	 H	1	SAM1	0.000	
49	H5'1	-9.017	-25.705	-5.869	 H	1	SAM1	0.000	
50	H5'2	-7.875	-27.059	-5.693	 H	1	SAM1	0.000	
@<TRIPOS>BOND
1 1 2 1
2 1 36 1
3 1 37 1
4 1 39 1
5 2 3 1
6 2 5 1
7 2 28 1
8 3 4 ar
9 3 17 ar
10 5 6 1
11 5 29 1
12 5 30 1
13 6 7 1
14 6 31 1
15 6 32 1
16 7 8 1
17 7 9 1
18 8 33 1
19 8 34 1
20 8 35 1
21 9 10 1
22 9 49 1
23 9 50 1
24 10 11 1
25 10 12 1
26 10 46 1
27 11 16 1
28 12 13 1
29 12 14 1
30 12 44 1
31 13 45 1
32 14 15 1
33 14 16 1
34 14 42 1
35 15 43 1
36 16 27 1
37 16 41 1
38 18 19 ar
39 18 23 ar
40 19 20 ar
41 19 38 1
42 20 21 ar
43 21 22 ar
44 21 27 ar
45 22 23 ar
46 22 25 ar
47 23 24 1
48 24 47 1
49 24 48 1
50 25 26 ar
51 26 27 ar
52 26 40 1
@<TRIPOS>SUBSTRUCTURE
1	SAM1	1	GROUP	1 D	SAM
