# created with PyMOL 2.5.0
@<TRIPOS>MOLECULE
7O2C
27 29 1                 
SMALL
USER_CHARGES
@<TRIPOS>ATOM
1	   N	-19.476	-14.702	-23.007	N.3	1	SAM502	0.000	
2	  CA	-19.651	-14.618	-21.529	C.3	1	SAM502	0.000	
3	   C	-20.695	-15.645	-21.029	C.2	1	SAM502	0.000	
4	   O	-21.054	-15.578	-19.885	O.co2	1	SAM502	0.000	
5	  CB	-20.019	-13.193	-21.102	C.3	1	SAM502	0.000	
6	  CG	-18.781	-12.301	-20.930	C.3	1	SAM502	0.000	
7	  SD	-17.812	-12.799	-19.506	S.3	1	SAM502	0.000	
8	  CE	-17.558	-11.338	-18.551	C.3	1	SAM502	0.000	
9	 C5'	-16.132	-12.930	-20.146	C.3	1	SAM502	0.000	
10	 C4'	-15.845	-14.130	-21.052	C.3	1	SAM502	0.000	
11	 O4'	-16.608	-14.032	-22.262	O.3	1	SAM502	0.000	
12	 C3'	-14.411	-14.297	-21.510	C.3	1	SAM502	0.000	
13	 O3'	-13.611	-14.860	-20.475	O.3	1	SAM502	0.000	
14	 C2'	-14.594	-15.138	-22.792	C.3	1	SAM502	0.000	
15	 O2'	-14.952	-16.473	-22.444	O.3	1	SAM502	0.000	
16	 C1'	-15.854	-14.493	-23.372	C.3	1	SAM502	0.000	
17	 OXT	-21.030	-16.516	-21.858	O.co2	1	SAM502	0.000	
18	  N1	-14.202	-12.892	-28.046	N.2	1	SAM502	0.000	
19	  C2	-14.324	-14.125	-27.478	C.2	1	SAM502	0.000	
20	  N3	-14.755	-14.459	-26.267	N.2	1	SAM502	0.000	
21	  C4	-15.096	-13.378	-25.528	C.2	1	SAM502	0.000	
22	  C5	-14.992	-12.066	-25.978	C.2	1	SAM502	0.000	
23	  C6	-14.541	-11.833	-27.276	C.2	1	SAM502	0.000	
24	  N6	-14.467	-10.609	-27.828	N.pl3	1	SAM502	0.000	
25	  N7	-15.370	-11.221	-24.967	N.2	1	SAM502	0.000	
26	  C8	-15.701	-12.001	-23.956	C.2	1	SAM502	0.000	
27	  N9	-15.560	-13.346	-24.239	N.2	1	SAM502	0.000	
@<TRIPOS>BOND
1 1 2 1
2 2 3 1
3 2 5 1
4 3 4 ar
5 3 17 ar
6 5 6 1
7 6 7 1
8 7 8 1
9 7 9 1
10 9 10 1
11 10 11 1
12 10 12 1
13 11 16 1
14 12 13 1
15 12 14 1
16 14 15 1
17 14 16 1
18 16 27 1
19 18 19 ar
20 18 23 ar
21 19 20 ar
22 20 21 ar
23 21 22 ar
24 21 27 ar
25 22 23 ar
26 22 25 ar
27 23 24 1
28 25 26 ar
29 26 27 ar
@<TRIPOS>SUBSTRUCTURE
1	SAM502	1	GROUP	1 A	SAM
