# created with PyMOL 2.4.0
@<TRIPOS>MOLECULE
temp
50 52 1                 
SMALL
USER_CHARGES
@<TRIPOS>ATOM
1	   N	-19.476	-14.702	-23.007	N.4	1	SAM1	0.000	
2	  CA	-19.651	-14.618	-21.529	C.3	1	SAM1	0.000	
3	   C	-20.695	-15.645	-21.029	C.2	1	SAM1	0.000	
4	   O	-21.054	-15.578	-19.885	O.co2	1	SAM1	0.000	
5	  CB	-20.019	-13.193	-21.102	C.3	1	SAM1	0.000	
6	  CG	-18.781	-12.301	-20.930	C.3	1	SAM1	0.000	
7	  SD	-17.812	-12.799	-19.506	S.3	1	SAM1	0.000	
8	  CE	-17.558	-11.338	-18.551	C.3	1	SAM1	0.000	
9	 C5'	-16.132	-12.930	-20.146	C.3	1	SAM1	0.000	
10	 C4'	-15.845	-14.130	-21.052	C.3	1	SAM1	0.000	
11	 O4'	-16.608	-14.032	-22.262	O.3	1	SAM1	0.000	
12	 C3'	-14.411	-14.297	-21.510	C.3	1	SAM1	0.000	
13	 O3'	-13.611	-14.860	-20.475	O.3	1	SAM1	0.000	
14	 C2'	-14.594	-15.138	-22.792	C.3	1	SAM1	0.000	
15	 O2'	-14.952	-16.473	-22.444	O.3	1	SAM1	0.000	
16	 C1'	-15.854	-14.493	-23.372	C.3	1	SAM1	0.000	
17	 OXT	-21.030	-16.516	-21.858	O.co2	1	SAM1	0.000	
18	  N1	-14.202	-12.892	-28.046	N.2	1	SAM1	0.000	
19	  C2	-14.324	-14.125	-27.478	C.2	1	SAM1	0.000	
20	  N3	-14.755	-14.459	-26.267	N.2	1	SAM1	0.000	
21	  C4	-15.096	-13.378	-25.528	C.2	1	SAM1	0.000	
22	  C5	-14.992	-12.066	-25.978	C.2	1	SAM1	0.000	
23	  C6	-14.541	-11.833	-27.276	C.2	1	SAM1	0.000	
24	  N6	-14.467	-10.609	-27.828	N.pl3	1	SAM1	0.000	
25	  N7	-15.370	-11.221	-24.967	N.2	1	SAM1	0.000	
26	  C8	-15.701	-12.001	-23.956	C.2	1	SAM1	0.000	
27	  N9	-15.560	-13.346	-24.239	N.2	1	SAM1	0.000	
28	  HA	-18.698	-14.869	-21.063	 H	1	SAM1	0.000	
29	 HB1	-20.554	-13.238	-20.153	 H	1	SAM1	0.000	
30	 HB2	-20.665	-12.754	-21.863	 H	1	SAM1	0.000	
31	 HG1	-19.103	-11.268	-20.797	 H	1	SAM1	0.000	
32	 HG2	-18.162	-12.376	-21.824	 H	1	SAM1	0.000	
33	 HE1	-18.488	-11.063	-18.053	 H	1	SAM1	0.000	
34	 HE2	-17.243	-10.526	-19.206	 H	1	SAM1	0.000	
35	 HE3	-16.786	-11.522	-17.804	 H	1	SAM1	0.000	
36	  H1	-20.348	-14.473	-23.463	 H	1	SAM1	0.000	
37	  H2	-19.199	-15.640	-23.260	 H	1	SAM1	0.000	
38	  H2	-14.026	-14.952	-28.105	 H	1	SAM1	0.000	
39	  H3	-18.762	-14.050	-23.299	 H	1	SAM1	0.000	
40	  H8	-16.047	-11.626	-23.004	 H	1	SAM1	0.000	
41	 H1'	-16.381	-15.226	-23.983	 H	1	SAM1	0.000	
42	 H2'	-13.713	-15.165	-23.433	 H	1	SAM1	0.000	
43	 H2'	-14.207	-16.862	-21.980	 H	1	SAM1	0.000	
44	 H3'	-13.857	-13.384	-21.729	 H	1	SAM1	0.000	
45	 H3'	-12.733	-15.009	-20.835	 H	1	SAM1	0.000	
46	 H4'	-16.105	-14.978	-20.418	 H	1	SAM1	0.000	
47	 H61	-14.747	-9.797	-27.296	 H	1	SAM1	0.000	
48	 H62	-14.132	-10.501	-28.775	 H	1	SAM1	0.000	
49	H5'1	-15.455	-12.988	-19.294	 H	1	SAM1	0.000	
50	H5'2	-15.922	-12.025	-20.716	 H	1	SAM1	0.000	
@<TRIPOS>BOND
1 1 2 1
2 1 36 1
3 1 37 1
4 1 39 1
5 2 3 1
6 2 5 1
7 2 28 1
8 3 4 ar
9 3 17 ar
10 5 6 1
11 5 29 1
12 5 30 1
13 6 7 1
14 6 31 1
15 6 32 1
16 7 8 1
17 7 9 1
18 8 33 1
19 8 34 1
20 8 35 1
21 9 10 1
22 9 49 1
23 9 50 1
24 10 11 1
25 10 12 1
26 10 46 1
27 11 16 1
28 12 13 1
29 12 14 1
30 12 44 1
31 13 45 1
32 14 15 1
33 14 16 1
34 14 42 1
35 15 43 1
36 16 27 1
37 16 41 1
38 18 19 ar
39 18 23 ar
40 19 20 ar
41 19 38 1
42 20 21 ar
43 21 22 ar
44 21 27 ar
45 22 23 ar
46 22 25 ar
47 23 24 1
48 24 47 1
49 24 48 1
50 25 26 ar
51 26 27 ar
52 26 40 1
@<TRIPOS>SUBSTRUCTURE
1	SAM1	1	GROUP	1 A	SAM
