@<TRIPOS>MOLECULE
7O2C.A
51 53 1 0 0 
SMALL
USER_CHARGES


@<TRIPOS>ATOM
  1 N      -19.4760   -14.7020   -23.0070 N.4   1 SAM  -0.8530 
  2 H1     -20.3478   -14.4733   -23.4628 H     1 SAM   0.4500 
  3 H2     -19.1995   -15.6397   -23.2605 H     1 SAM   0.4500 
  4 H3     -18.7622   -14.0499   -23.2991 H     1 SAM   0.4500 
  5 CA     -19.6510   -14.6180   -21.5290 C.3   1 SAM   0.3170 
  6 HA     -18.6980   -14.8688   -21.0632 H     1 SAM   0.0800 
  7 C      -20.6950   -15.6450   -21.0290 C.2   1 SAM   0.9060 
  8 O      -21.0540   -15.5780   -19.8850 O.co2 1 SAM  -0.9000 
  9 CB     -20.0190   -13.1930   -21.1020 C.3   1 SAM  -0.1600 
 10 HB1    -20.5538   -13.2379   -20.1533 H     1 SAM   0.0800 
 11 HB2    -20.6648   -12.7543   -21.8627 H     1 SAM   0.0800 
 12 CG     -18.7810   -12.3010   -20.9300 C.3   1 SAM  -0.1525 
 13 HG1    -19.1032   -11.2683   -20.7967 H     1 SAM   0.0800 
 14 HG2    -18.1623   -12.3760   -21.8243 H     1 SAM   0.0800 
 15 SD     -17.8120   -12.7990   -19.5060 S.3   1 SAM   0.9775 
 16 CE     -17.5580   -11.3380   -18.5510 C.3   1 SAM  -0.2325 
 17 HE1    -18.4879   -11.0632   -18.0531 H     1 SAM   0.0800 
 18 HE2    -17.2429   -10.5259   -19.2062 H     1 SAM   0.0800 
 19 HE3    -16.7863   -11.5221   -17.8036 H     1 SAM   0.0800 
 20 C5'    -16.1320   -12.9300   -20.1460 C.3   1 SAM  -0.1525 
 21 H5'1   -15.4551   -12.9876   -19.2936 H     1 SAM   0.0800 
 22 H5'2   -15.9220   -12.0251   -20.7163 H     1 SAM   0.0800 
 23 C4'    -15.8450   -14.1300   -21.0520 C.3   1 SAM   0.2000 
 24 H4'    -16.1046   -14.9781   -20.4184 H     1 SAM   0.0800 
 25 O4'    -16.6080   -14.0320   -22.2620 O.3   1 SAM  -0.5600 
 26 C3'    -14.4110   -14.2970   -21.5100 C.3   1 SAM   0.2000 
 27 H3'    -13.8570   -13.3842   -21.7288 H     1 SAM   0.0800 
 28 O3'    -13.6110   -14.8600   -20.4750 O.3   1 SAM  -0.6800 
 29 H3'    -12.7335   -15.0089   -20.8348 H     1 SAM   0.4000 
 30 C2'    -14.5940   -15.1380   -22.7920 C.3   1 SAM   0.2000 
 31 H2'    -13.7126   -15.1653   -23.4327 H     1 SAM   0.0800 
 32 O2'    -14.9520   -16.4730   -22.4440 O.3   1 SAM  -0.6800 
 33 H2'    -14.2070   -16.8617   -21.9797 H     1 SAM   0.4000 
 34 C1'    -15.8540   -14.4930   -23.3720 C.3   1 SAM   0.5691 
 35 H1'    -16.3812   -15.2259   -23.9828 H     1 SAM   0.0800 
 36 OXT    -21.0300   -16.5160   -21.8580 O.co2 1 SAM  -0.9000 
 37 N1     -14.2020   -12.8920   -28.0460 N.2   1 SAM  -0.6610 
 38 C2     -14.3240   -14.1250   -27.4780 C.2   1 SAM   0.6010 
 39 H2     -14.0263   -14.9523   -28.1052 H     1 SAM   0.0600 
 40 N3     -14.7550   -14.4590   -26.2670 N.2   1 SAM  -0.6610 
 41 C4     -15.0960   -13.3780   -25.5280 C.2   1 SAM   0.5000 
 42 C5     -14.9920   -12.0660   -25.9780 C.2   1 SAM   0.4500 
 43 C6     -14.5410   -11.8330   -27.2760 C.2   1 SAM   0.6110 
 44 N6     -14.4670   -10.6090   -27.8280 N.2   1 SAM  -0.2000 
 45 H62    -14.1316   -10.5013   -28.7746 H     1 SAM   0.4000 
 46 H61    -14.7468    -9.7973   -27.2960 H     1 SAM   0.4000 
 47 N7     -15.3700   -11.2210   -24.9670 N.2   1 SAM  -0.6960 
 48 C8     -15.7010   -12.0010   -23.9560 C.3   1 SAM   0.4551 
 49 H81    -16.7419   -11.8087   -23.6961 H     1 SAM   0.0800 
 50 H82    -15.0633   -11.7568   -23.1064 H     1 SAM   0.0800 
 51 N9     -15.5600   -13.3460   -24.2390 N.pl3 1 SAM  -0.7882 
@<TRIPOS>BOND
  1   1   2  1   
  2   1   3  1   
  3   1   4  1   
  4   1   5  1   
  5   5   6  1   
  6   5   7  1   
  7   5   9  1   
  8   7   8  ar  
  9   7  36  ar  
 10   9  10  1   
 11   9  11  1   
 12   9  12  1   
 13  12  13  1   
 14  12  14  1   
 15  12  15  1   
 16  15  16  1   
 17  15  20  1   
 18  16  17  1   
 19  16  18  1   
 20  16  19  1   
 21  20  21  1   
 22  20  22  1   
 23  20  23  1   
 24  23  24  1   
 25  23  25  1   
 26  23  26  1   
 27  25  34  1   
 28  26  27  1   
 29  26  28  1   
 30  26  30  1   
 31  28  29  1   
 32  30  31  1   
 33  30  32  1   
 34  30  34  1   
 35  32  33  1   
 36  34  35  1   
 37  34  51  1   
 38  37  38  2   
 39  37  43  1   
 40  38  39  1   
 41  38  40  1   
 42  40  41  2   
 43  41  42  1   
 44  41  51  1   
 45  42  43  1   
 46  42  47  2   
 47  43  44  2   
 48  44  45  1   
 49  44  46  1   
 50  47  48  1   
 51  48  49  1   
 52  48  50  1   
 53  48  51  1   
@<TRIPOS>SUBSTRUCTURE
  1 SAM  25 GROUP 4 A **** 0

# MOE 2022.02 (io_trps.svl 2020.11)
