# created with PyMOL 2.5.0
@<TRIPOS>MOLECULE
7O2C
29 33 1                 
SMALL
USER_CHARGES
@<TRIPOS>ATOM
1	  C1	-13.257	-2.338	-15.879	C.2	1	UZK501	0.000	
2	  C2	-13.843	-1.447	-14.935	C.2	1	UZK501	0.000	
3	  C3	-13.398	-0.081	-15.001	C.2	1	UZK501	0.000	
4	  C4	-12.565	0.360	-15.925	C.2	1	UZK501	0.000	
5	  C5	-11.990	-0.508	-16.948	C.2	1	UZK501	0.000	
6	  C6	-12.403	-1.869	-16.846	C.2	1	UZK501	0.000	
7	  N7	-12.080	1.681	-16.052	N.pl3	1	UZK501	0.000	
8	  C8	-13.106	2.707	-16.460	C.3	1	UZK501	0.000	
9	  C9	-14.473	2.401	-15.760	C.3	1	UZK501	0.000	
10	 C10	-14.308	2.027	-14.313	C.2	1	UZK501	0.000	
11	 N11	-13.955	0.758	-14.052	N.pl3	1	UZK501	0.000	
12	 O12	-14.661	2.644	-13.308	O.2	1	UZK501	0.000	
13	 C13	-13.230	2.824	-17.933	C.3	1	UZK501	0.000	
14	 C14	-13.684	-3.816	-15.785	C.2	1	UZK501	0.000	
15	 N15	-13.235	-4.642	-16.752	N.pl3	1	UZK501	0.000	
16	 C16	-13.765	-6.015	-16.620	C.3	1	UZK501	0.000	
17	 C17	-15.171	-6.207	-17.095	C.3	1	UZK501	0.000	
18	 C18	-15.698	-7.572	-16.574	C.3	1	UZK501	0.000	
19	 C19	-16.822	-8.131	-17.402	C.3	1	UZK501	0.000	
20	 C20	-15.400	-8.755	-17.481	C.3	1	UZK501	0.000	
21	 O21	-14.346	-4.120	-14.823	O.2	1	UZK501	0.000	
22	 C22	-10.804	1.981	-16.055	C.2	1	UZK501	0.000	
23	 N23	-9.812	1.163	-15.605	N.pl3	1	UZK501	0.000	
24	 O24	-10.404	3.066	-16.558	O.2	1	UZK501	0.000	
25	 C25	-8.422	1.473	-15.628	C.3	1	UZK501	0.000	
26	 C26	-7.872	1.289	-14.262	C.3	1	UZK501	0.000	
27	 C27	-9.035	0.573	-13.472	C.3	1	UZK501	0.000	
28	 C28	-10.043	0.166	-14.613	C.3	1	UZK501	0.000	
29	 C29	-8.606	2.085	-13.184	C.3	1	UZK501	0.000	
@<TRIPOS>BOND
1 1 2 ar
2 1 6 ar
3 1 14 1
4 2 3 ar
5 3 4 ar
6 3 11 1
7 4 5 ar
8 4 7 1
9 5 6 ar
10 7 8 1
11 7 22 1
12 8 9 1
13 8 13 1
14 9 10 1
15 10 11 1
16 10 12 2
17 14 15 1
18 14 21 2
19 15 16 1
20 16 17 1
21 17 18 1
22 18 19 1
23 18 20 1
24 19 20 1
25 22 23 1
26 22 24 2
27 23 25 1
28 23 28 1
29 25 26 1
30 26 27 1
31 26 29 1
32 27 28 1
33 27 29 1
@<TRIPOS>SUBSTRUCTURE
1	UZK501	1	GROUP	1 A	UZK
