@<TRIPOS>MOLECULE
7O2C.A
57 61 1 0 0 
SMALL
USER_CHARGES


@<TRIPOS>ATOM
  1 C1     -13.2570    -2.3380   -15.8790 C.ar  1 UZK   0.0862 
  2 C2     -13.8430    -1.4470   -14.9350 C.ar  1 UZK  -0.1500 
  3 H2     -14.5764    -1.7768   -14.2140 H     1 UZK   0.1500 
  4 C3     -13.3980    -0.0810   -15.0010 C.ar  1 UZK   0.1170 
  5 C4     -12.5650     0.3600   -15.9250 C.ar  1 UZK   0.1170 
  6 C5     -11.9900    -0.5080   -16.9480 C.ar  1 UZK  -0.1500 
  7 H5     -11.3142    -0.1523   -17.7116 H     1 UZK   0.1500 
  8 C6     -12.4030    -1.8690   -16.8460 C.ar  1 UZK  -0.1500 
  9 H6     -12.0217    -2.5719   -17.5719 H     1 UZK   0.1500 
 10 N7     -12.0800     1.6810   -16.0520 N.am  1 UZK  -0.4771 
 11 C8     -13.1060     2.7070   -16.4600 C.3   1 UZK   0.2201 
 12 H8     -12.7672     3.6861   -16.1214 H     1 UZK   0.0800 
 13 C9     -14.4730     2.4010   -15.7600 C.3   1 UZK  -0.0990 
 14 H91    -14.9556     1.5746   -16.2818 H     1 UZK   0.0800 
 15 H92    -15.1037     3.2878   -15.8221 H     1 UZK   0.0800 
 16 C10    -14.3080     2.0270   -14.3130 C.2   1 UZK   0.5690 
 17 N11    -13.9550     0.7580   -14.0520 N.am  1 UZK  -0.5470 
 18 H11    -14.1029     0.3992   -13.1196 H     1 UZK   0.3700 
 19 O12    -14.6610     2.6440   -13.3080 O.2   1 UZK  -0.5700 
 20 C13    -13.2300     2.8240   -17.9330 C.3   1 UZK  -0.2400 
 21 H131   -13.5680     1.8735   -18.3458 H     1 UZK   0.0800 
 22 H132   -12.2607     3.0814   -18.3599 H     1 UZK   0.0800 
 23 H133   -13.9525     3.6032   -18.1761 H     1 UZK   0.0800 
 24 C14    -13.6840    -3.8160   -15.7850 C.2   1 UZK   0.5438 
 25 N15    -13.2350    -4.6420   -16.7520 N.am  1 UZK  -0.7301 
 26 H15    -12.6049    -4.3534   -17.4867 H     1 UZK   0.3700 
 27 C16    -13.7650    -6.0150   -16.6200 C.3   1 UZK   0.1401 
 28 H161   -13.7250    -6.2914   -15.5664 H     1 UZK   0.0800 
 29 H162   -13.1216    -6.6809   -17.1950 H     1 UZK   0.0800 
 30 C17    -15.1710    -6.2070   -17.0950 C.3   1 UZK  -0.0650 
 31 H171   -15.1931    -6.1984   -18.1847 H     1 UZK   0.0800 
 32 H172   -15.7992    -5.4025   -16.7125 H     1 UZK   0.0800 
 33 C18    -15.6980    -7.5720   -16.5740 C.3   1 UZK  -0.1950 
 34 H18    -15.5461    -7.3779   -15.5122 H     1 UZK   0.1000 
 35 C19    -16.8220    -8.1310   -17.4020 C.3   1 UZK  -0.2000 
 36 H191   -17.2160    -7.5614   -18.2437 H     1 UZK   0.1000 
 37 H192   -17.6331    -8.6792   -16.9228 H     1 UZK   0.1000 
 38 C20    -15.4000    -8.7550   -17.4810 C.3   1 UZK  -0.2000 
 39 H201   -15.2080    -9.7394   -17.0541 H     1 UZK   0.1000 
 40 H202   -14.7908    -8.6216   -18.3750 H     1 UZK   0.1000 
 41 O21    -14.3460    -4.1200   -14.8230 O.2   1 UZK  -0.5700 
 42 C22    -10.8040     1.9810   -16.0550 C.2   1 UZK   0.6900 
 43 N23     -9.8120     1.1630   -15.6050 N.am  1 UZK  -0.6602 
 44 O24    -10.4040     3.0660   -16.5580 O.2   1 UZK  -0.5700 
 45 C25     -8.4220     1.4730   -15.6280 C.3   1 UZK   0.2351 
 46 H251    -8.2817     2.5067   -15.9440 H     1 UZK   0.0800 
 47 H252    -7.9091     0.8079   -16.3228 H     1 UZK   0.0800 
 48 C26     -7.8720     1.2890   -14.2620 C.3   1 UZK  -0.1950 
 49 H26     -6.8067     1.1608   -14.4537 H     1 UZK   0.1000 
 50 C27     -9.0350     0.5730   -13.4720 C.3   1 UZK  -0.1950 
 51 H27     -9.2859    -0.2097   -12.7561 H     1 UZK   0.1000 
 52 C28    -10.0430     0.1660   -14.6130 C.3   1 UZK   0.2351 
 53 H281    -9.8209    -0.8296   -14.9971 H     1 UZK   0.0800 
 54 H282   -11.0728     0.1967   -14.2571 H     1 UZK   0.0800 
 55 C29     -8.6060     2.0850   -13.1840 C.3   1 UZK  -0.2000 
 56 H291    -9.2694     2.9017   -13.4686 H     1 UZK   0.1000 
 57 H292    -8.0970     2.3377   -12.2538 H     1 UZK   0.1000 
@<TRIPOS>BOND
  1   1   2  ar  
  2   1   8  ar  
  3   1  24  1   
  4   2   3  1   
  5   2   4  ar  
  6   4   5  ar  
  7   4  17  1   
  8   5   6  ar  
  9   5  10  1   
 10   6   7  1   
 11   6   8  ar  
 12   8   9  1   
 13  10  11  1   
 14  10  42  am  
 15  11  12  1   
 16  11  13  1   
 17  11  20  1   
 18  13  14  1   
 19  13  15  1   
 20  13  16  1   
 21  16  17  am  
 22  16  19  2   
 23  17  18  1   
 24  20  21  1   
 25  20  22  1   
 26  20  23  1   
 27  24  25  am  
 28  24  41  2   
 29  25  26  1   
 30  25  27  1   
 31  27  28  1   
 32  27  29  1   
 33  27  30  1   
 34  30  31  1   
 35  30  32  1   
 36  30  33  1   
 37  33  34  1   
 38  33  35  1   
 39  33  38  1   
 40  35  36  1   
 41  35  37  1   
 42  35  38  1   
 43  38  39  1   
 44  38  40  1   
 45  42  43  am  
 46  42  44  2   
 47  43  45  1   
 48  43  52  1   
 49  45  46  1   
 50  45  47  1   
 51  45  48  1   
 52  48  49  1   
 53  48  50  1   
 54  48  55  1   
 55  50  51  1   
 56  50  52  1   
 57  50  55  1   
 58  52  53  1   
 59  52  54  1   
 60  55  56  1   
 61  55  57  1   
@<TRIPOS>SUBSTRUCTURE
  1 UZK   5 GROUP 4 A **** 0

# MOE 2022.02 (io_trps.svl 2020.11)
