# created with PyMOL 2.5.0
@<TRIPOS>MOLECULE
4JDS
32 35 1                 
SMALL
USER_CHARGES
@<TRIPOS>ATOM
1	   N	-44.350	0.148	28.535	N.3	1	1L4402	0.000	
2	  CA	-44.177	0.997	27.338	C.3	1	1L4402	0.000	
3	 CAF	-39.558	-0.075	30.139	C.1	1	1L4402	0.000	
4	 CAG	-39.763	1.172	26.650	C.2	1	1L4402	0.000	
5	 CAH	-39.281	0.591	27.819	C.2	1	1L4402	0.000	
6	 CAK	-42.038	-1.918	26.817	C.2	1	1L4402	0.000	
7	 CAL	-41.973	-2.725	29.088	C.2	1	1L4402	0.000	
8	 CAM	-45.330	2.455	23.400	C.3	1	1L4402	0.000	
9	 CAN	-46.566	3.225	23.784	C.3	1	1L4402	0.000	
10	 CAO	-38.531	-3.747	29.825	C.3	1	1L4402	0.000	
11	 CAP	-40.042	-3.833	29.997	C.3	1	1L4402	0.000	
12	 CAQ	-38.721	-3.488	27.414	C.3	1	1L4402	0.000	
13	 CAR	-44.545	2.419	24.681	C.3	1	1L4402	0.000	
14	 CAS	-46.849	2.769	25.208	C.3	1	1L4402	0.000	
15	 CAX	-40.082	0.521	28.952	C.2	1	1L4402	0.000	
16	 CAY	-40.739	-2.392	26.631	C.2	1	1L4402	0.000	
17	   C	-45.533	1.593	26.903	C.2	1	1L4402	0.000	
18	   O	-46.532	1.492	27.616	O.2	1	1L4402	0.000	
19	 NAA	-39.116	-0.572	31.107	N.1	1	1L4402	0.000	
20	 NAU	-38.140	-4.295	28.514	N.3	1	1L4402	0.000	
21	 OAC	-45.084	-1.786	26.999	O.2	1	1L4402	0.000	
22	 OAD	-44.897	-2.140	29.499	O.2	1	1L4402	0.000	
23	  CB	-43.169	2.122	27.662	C.3	1	1L4402	0.000	
24	 CBA	-40.672	-3.197	28.911	C.2	1	1L4402	0.000	
25	 CBB	-42.659	-2.078	28.049	C.2	1	1L4402	0.000	
26	 CBC	-40.037	-3.035	27.667	C.2	1	1L4402	0.000	
27	 NBE	-45.583	2.189	25.699	N.pl3	1	1L4402	0.000	
28	  CG	-41.877	1.599	27.735	C.2	1	1L4402	0.000	
29	 CD1	-41.059	1.678	26.603	C.2	1	1L4402	0.000	
30	 CD2	-41.381	1.037	28.917	C.2	1	1L4402	0.000	
31	  S1	-44.308	-1.466	28.268	S.o2	1	1L4402	0.000	
32	 FAE	-40.173	-2.213	25.425	 F	1	1L4402	0.000	
@<TRIPOS>BOND
1 1 2 1
2 1 31 1
3 2 17 1
4 2 23 1
5 3 15 1
6 3 19 3
7 4 5 ar
8 4 29 ar
9 5 15 ar
10 6 16 ar
11 6 25 ar
12 7 24 ar
13 7 25 ar
14 8 9 1
15 8 13 1
16 9 14 1
17 10 11 1
18 10 20 1
19 11 24 1
20 12 20 1
21 12 26 1
22 13 27 1
23 14 27 1
24 15 30 ar
25 16 26 ar
26 16 32 1
27 17 18 2
28 17 27 1
29 21 31 2
30 22 31 2
31 23 28 1
32 24 26 ar
33 25 31 1
34 28 29 ar
35 28 30 ar
@<TRIPOS>SUBSTRUCTURE
1	1L4402	1	GROUP	1 A	1L4
