@<TRIPOS>MOLECULE
4JDS.A
58 61 1 0 0 
SMALL
USER_CHARGES


@<TRIPOS>ATOM
  1 N      -44.3500     0.1480    28.5350 N.am  1 Q1L  -0.9137 
  2 H      -44.4852     0.5380    29.4568 H     1 Q1L   0.4200 
  3 CA     -44.1770     0.9970    27.3380 C.3   1 Q1L   0.3367 
  4 HA     -43.7942     0.3945    26.5142 H     1 Q1L   0.0800 
  5 CAF    -39.5580    -0.0750    30.1390 C.1   1 Q1L   0.4841 
  6 CAG    -39.7630     1.1720    26.6500 C.ar  1 Q1L  -0.1500 
  7 HAG    -39.1300     1.2305    25.7769 H     1 Q1L   0.1500 
  8 CAH    -39.2810     0.5910    27.8190 C.ar  1 Q1L  -0.1500 
  9 HAH    -38.2778     0.1919    27.8457 H     1 Q1L   0.1500 
 10 CAK    -42.0380    -1.9180    26.8170 C.ar  1 Q1L  -0.1500 
 11 HAK    -42.5582    -1.4289    26.0067 H     1 Q1L   0.1500 
 12 CAL    -41.9730    -2.7250    29.0880 C.ar  1 Q1L  -0.1500 
 13 HAL    -42.4609    -2.8601    30.0420 H     1 Q1L   0.1500 
 14 CAM    -45.3300     2.4550    23.4000 C.3   1 Q1L  -0.1600 
 15 HAM1   -44.7758     2.9693    22.6148 H     1 Q1L   0.0800 
 16 HAM2   -45.5828     1.4485    23.0667 H     1 Q1L   0.0800 
 17 CAN    -46.5660     3.2250    23.7840 C.3   1 Q1L  -0.1600 
 18 HAN1   -47.3980     2.9781    23.1245 H     1 Q1L   0.0800 
 19 HAN2   -46.3812     4.2987    23.7494 H     1 Q1L   0.0800 
 20 CAO    -38.5310    -3.7470    29.8250 C.3   1 Q1L   0.3430 
 21 HAO1   -38.0448    -4.3195    30.6149 H     1 Q1L   0.0800 
 22 HAO2   -38.2195    -2.7043    29.8876 H     1 Q1L   0.0800 
 23 CAP    -40.0420    -3.8330    29.9970 C.3   1 Q1L  -0.0165 
 24 HAP1   -40.3312    -3.3399    30.9251 H     1 Q1L   0.0800 
 25 HAP2   -40.3453    -4.8794    30.0317 H     1 Q1L   0.0800 
 26 CAQ    -38.7210    -3.4880    27.4140 C.3   1 Q1L   0.4865 
 27 HAQ1   -38.7362    -4.0990    26.5115 H     1 Q1L   0.0800 
 28 HAQ2   -38.0839    -2.6183    27.2533 H     1 Q1L   0.0800 
 29 CAR    -44.5450     2.4190    24.6810 C.3   1 Q1L   0.1401 
 30 HAR1   -44.0311     3.3649    24.8523 H     1 Q1L   0.0800 
 31 HAR2   -43.8180     1.6069    24.6723 H     1 Q1L   0.0800 
 32 CAS    -46.8490     2.7690    25.2080 C.3   1 Q1L   0.1401 
 33 HAS1   -47.6398     2.0189    25.2171 H     1 Q1L   0.0800 
 34 HAS2   -47.1446     3.6161    25.8270 H     1 Q1L   0.0800 
 35 CAX    -40.0820     0.5210    28.9520 C.ar  1 Q1L   0.0730 
 36 CAY    -40.7390    -2.3920    26.6310 C.ar  1 Q1L   0.1900 
 37 C      -45.5330     1.5930    26.9030 C.2   1 Q1L   0.5690 
 38 O      -46.5320     1.4920    27.6160 O.2   1 Q1L  -0.5700 
 39 NAA    -39.1160    -0.5720    31.1070 N.1   1 Q1L  -0.5571 
 40 NAU    -38.1400    -4.2950    28.5140 N.4   1 Q1L  -0.9060 
 41 HAU1   -38.4730    -5.2456    28.4394 H     1 Q1L   0.4500 
 42 HAU2   -37.1330    -4.2840    28.4371 H     1 Q1L   0.4500 
 43 OAC    -45.0840    -1.7860    26.9990 O.2   1 Q1L  -0.6500 
 44 OAD    -44.8970    -2.1400    29.4990 O.2   1 Q1L  -0.6500 
 45 CB     -43.1690     2.1220    27.6620 C.3   1 Q1L  -0.0165 
 46 HB1    -43.4294     2.5755    28.6184 H     1 Q1L   0.0800 
 47 HB2    -43.2084     2.8786    26.8784 H     1 Q1L   0.0800 
 48 CBA    -40.6720    -3.1970    28.9110 C.ar  1 Q1L  -0.1435 
 49 CBB    -42.6590    -2.0780    28.0490 C.ar  1 Q1L  -0.0090 
 50 CBC    -40.0370    -3.0350    27.6670 C.ar  1 Q1L  -0.1435 
 51 NBE    -45.5830     2.1890    25.6990 N.am  1 Q1L  -0.6602 
 52 CG     -41.8770     1.5990    27.7350 C.ar  1 Q1L  -0.1435 
 53 CD1    -41.0590     1.6780    26.6030 C.ar  1 Q1L  -0.1500 
 54 HD1    -41.4316     2.1300    25.6957 H     1 Q1L   0.1500 
 55 CD2    -41.3810     1.0370    28.9170 C.ar  1 Q1L  -0.1500 
 56 HD2    -42.0008     1.0020    29.8008 H     1 Q1L   0.1500 
 57 S1     -44.3080    -1.4660    28.2680 S.o2  1 Q1L   1.4470 
 58 FAE    -40.1730    -2.2130    25.4250 F     1 Q1L  -0.1900 
@<TRIPOS>BOND
  1   1   2  1   
  2   1   3  1   
  3   1  57  am  
  4   3   4  1   
  5   3  37  1   
  6   3  45  1   
  7   5  35  1   
  8   5  39  3   
  9   6   7  1   
 10   6   8  ar  
 11   6  53  ar  
 12   8   9  1   
 13   8  35  ar  
 14  10  11  1   
 15  10  36  ar  
 16  10  49  ar  
 17  12  13  1   
 18  12  48  ar  
 19  12  49  ar  
 20  14  15  1   
 21  14  16  1   
 22  14  17  1   
 23  14  29  1   
 24  17  18  1   
 25  17  19  1   
 26  17  32  1   
 27  20  21  1   
 28  20  22  1   
 29  20  23  1   
 30  20  40  1   
 31  23  24  1   
 32  23  25  1   
 33  23  48  1   
 34  26  27  1   
 35  26  28  1   
 36  26  40  1   
 37  26  50  1   
 38  29  30  1   
 39  29  31  1   
 40  29  51  1   
 41  32  33  1   
 42  32  34  1   
 43  32  51  1   
 44  35  55  ar  
 45  36  50  ar  
 46  36  58  1   
 47  37  38  2   
 48  37  51  am  
 49  40  41  1   
 50  40  42  1   
 51  43  57  2   
 52  44  57  2   
 53  45  46  1   
 54  45  47  1   
 55  45  52  1   
 56  48  50  ar  
 57  49  57  1   
 58  52  53  ar  
 59  52  55  ar  
 60  53  54  1   
 61  55  56  1   
@<TRIPOS>SUBSTRUCTURE
  1 Q1L  10 GROUP 4 A **** 0

# MOE 2022.02 (io_trps.svl 2020.11)
