# created with PyMOL 2.5.2
@<TRIPOS>MOLECULE
4JDS.A
58 61 1                 
SMALL
USER_CHARGES
@<TRIPOS>ATOM
1	   N	-44.350	0.148	28.535	N.3	1	1L41L	-0.914	
2	  CA	-44.177	0.997	27.338	C.3	1	1L41L	0.337	
3	 CAF	-39.558	-0.075	30.139	C.1	1	1L41L	0.484	
4	 CAG	-39.763	1.172	26.650	C.2	1	1L41L	-0.150	
5	 CAH	-39.281	0.591	27.819	C.2	1	1L41L	-0.150	
6	 CAK	-42.038	-1.918	26.817	C.2	1	1L41L	-0.150	
7	 CAL	-41.973	-2.725	29.088	C.2	1	1L41L	-0.150	
8	 CAM	-45.330	2.455	23.400	C.3	1	1L41L	-0.160	
9	 CAN	-46.566	3.225	23.784	C.3	1	1L41L	-0.160	
10	 CAO	-38.531	-3.747	29.825	C.3	1	1L41L	0.343	
11	 CAP	-40.042	-3.833	29.997	C.3	1	1L41L	-0.016	
12	 CAQ	-38.721	-3.488	27.414	C.3	1	1L41L	0.486	
13	 CAR	-44.545	2.419	24.681	C.3	1	1L41L	0.140	
14	 CAS	-46.849	2.769	25.208	C.3	1	1L41L	0.140	
15	 CAX	-40.082	0.521	28.952	C.2	1	1L41L	0.073	
16	 CAY	-40.739	-2.392	26.631	C.2	1	1L41L	0.190	
17	   C	-45.533	1.593	26.903	C.2	1	1L41L	0.569	
18	   O	-46.532	1.492	27.616	O.2	1	1L41L	-0.570	
19	 NAA	-39.116	-0.572	31.107	N.1	1	1L41L	-0.557	
20	 NAU	-38.140	-4.295	28.514	N.4	1	1L41L	-0.906	
21	 OAC	-45.084	-1.786	26.999	O.2	1	1L41L	-0.650	
22	 OAD	-44.897	-2.140	29.499	O.2	1	1L41L	-0.650	
23	  CB	-43.169	2.122	27.662	C.3	1	1L41L	-0.016	
24	 CBA	-40.672	-3.197	28.911	C.2	1	1L41L	-0.144	
25	 CBB	-42.659	-2.078	28.049	C.2	1	1L41L	-0.009	
26	 CBC	-40.037	-3.035	27.667	C.2	1	1L41L	-0.144	
27	 NBE	-45.583	2.189	25.699	N.pl3	1	1L41L	-0.660	
28	  CG	-41.877	1.599	27.735	C.2	1	1L41L	-0.144	
29	 CD1	-41.059	1.678	26.603	C.2	1	1L41L	-0.150	
30	 CD2	-41.381	1.037	28.917	C.2	1	1L41L	-0.150	
31	  S1	-44.308	-1.466	28.268	S.O2	1	1L41L	1.447	
32	   F	-40.173	-2.213	25.425	 F	1	1L41L	-0.190	
33	   H	-44.485	0.538	29.457	 H	1	1L41L	0.420	
34	  HA	-43.794	0.394	26.514	 H	1	1L41L	0.080	
35	 HAG	-39.130	1.230	25.777	 H	1	1L41L	0.150	
36	 HAH	-38.278	0.192	27.846	 H	1	1L41L	0.150	
37	 HAK	-42.558	-1.429	26.007	 H	1	1L41L	0.150	
38	 HAL	-42.461	-2.860	30.042	 H	1	1L41L	0.150	
39	HAM1	-44.776	2.969	22.615	 H	1	1L41L	0.080	
40	HAM2	-45.583	1.449	23.067	 H	1	1L41L	0.080	
41	HAN1	-47.398	2.978	23.125	 H	1	1L41L	0.080	
42	HAN2	-46.381	4.299	23.749	 H	1	1L41L	0.080	
43	HAO1	-38.045	-4.319	30.615	 H	1	1L41L	0.080	
44	HAO2	-38.220	-2.704	29.888	 H	1	1L41L	0.080	
45	HAP1	-40.331	-3.340	30.925	 H	1	1L41L	0.080	
46	HAP2	-40.345	-4.879	30.032	 H	1	1L41L	0.080	
47	HAQ1	-38.736	-4.099	26.511	 H	1	1L41L	0.080	
48	HAQ2	-38.084	-2.618	27.253	 H	1	1L41L	0.080	
49	HAR1	-44.031	3.365	24.852	 H	1	1L41L	0.080	
50	HAR2	-43.818	1.607	24.672	 H	1	1L41L	0.080	
51	HAS1	-47.640	2.019	25.217	 H	1	1L41L	0.080	
52	HAS2	-47.145	3.616	25.827	 H	1	1L41L	0.080	
53	HAU1	-38.473	-5.246	28.439	 H	1	1L41L	0.450	
54	HAU2	-37.133	-4.284	28.437	 H	1	1L41L	0.450	
55	 HB1	-43.429	2.576	28.618	 H	1	1L41L	0.080	
56	 HB2	-43.208	2.879	26.878	 H	1	1L41L	0.080	
57	 HD1	-41.432	2.130	25.696	 H	1	1L41L	0.150	
58	 HD2	-42.001	1.002	29.801	 H	1	1L41L	0.150	
@<TRIPOS>BOND
1 1 2 1
2 1 31 1
3 1 33 1
4 2 17 1
5 2 23 1
6 2 34 1
7 3 15 1
8 3 19 3
9 4 5 ar
10 4 29 ar
11 4 35 1
12 5 15 ar
13 5 36 1
14 6 16 ar
15 6 25 ar
16 6 37 1
17 7 24 ar
18 7 25 ar
19 7 38 1
20 8 9 1
21 8 13 1
22 8 39 1
23 8 40 1
24 9 14 1
25 9 41 1
26 9 42 1
27 10 11 1
28 10 20 1
29 10 43 1
30 10 44 1
31 11 24 1
32 11 45 1
33 11 46 1
34 12 20 1
35 12 26 1
36 12 47 1
37 12 48 1
38 13 27 1
39 13 49 1
40 13 50 1
41 14 27 1
42 14 51 1
43 14 52 1
44 15 30 ar
45 16 26 ar
46 16 32 1
47 17 18 2
48 17 27 1
49 20 53 1
50 20 54 1
51 21 31 2
52 22 31 2
53 23 28 1
54 23 55 1
55 23 56 1
56 24 26 ar
57 25 31 1
58 28 29 ar
59 28 30 ar
60 29 57 1
61 30 58 1
@<TRIPOS>SUBSTRUCTURE
1	1L41L	1	GROUP	1 A	1L4
