# created with PyMOL 2.5.0
@<TRIPOS>MOLECULE
4JDS
27 29 1                 
SMALL
USER_CHARGES
@<TRIPOS>ATOM
1	   N	-47.160	11.376	19.371	N.3	1	SAM401	0.000	
2	  CA	-46.763	10.169	18.654	C.3	1	SAM401	0.000	
3	   C	-46.625	10.416	17.150	C.2	1	SAM401	0.000	
4	   O	-46.804	11.538	16.682	O.co2	1	SAM401	0.000	
5	  CB	-47.786	9.063	18.906	C.3	1	SAM401	0.000	
6	  CG	-47.510	8.296	20.209	C.3	1	SAM401	0.000	
7	  SD	-45.995	7.288	20.166	S.3	1	SAM401	0.000	
8	  CE	-46.611	5.694	20.810	C.3	1	SAM401	0.000	
9	 C5'	-45.112	7.791	21.666	C.3	1	SAM401	0.000	
10	 C4'	-44.400	9.129	21.516	C.3	1	SAM401	0.000	
11	 O4'	-45.342	10.177	21.568	O.3	1	SAM401	0.000	
12	 C3'	-43.434	9.405	22.652	C.3	1	SAM401	0.000	
13	 O3'	-42.157	8.903	22.345	O.3	1	SAM401	0.000	
14	 C2'	-43.457	10.912	22.780	C.3	1	SAM401	0.000	
15	 O2'	-42.656	11.514	21.782	O.3	1	SAM401	0.000	
16	 C1'	-44.886	11.219	22.406	C.3	1	SAM401	0.000	
17	 OXT	-46.309	9.501	16.383	O.co2	1	SAM401	0.000	
18	  N1	-46.613	14.265	26.229	N.2	1	SAM401	0.000	
19	  C2	-45.567	14.478	25.345	C.2	1	SAM401	0.000	
20	  N3	-45.222	13.551	24.382	N.2	1	SAM401	0.000	
21	  C4	-45.965	12.403	24.325	C.2	1	SAM401	0.000	
22	  C5	-47.014	12.147	25.207	C.2	1	SAM401	0.000	
23	  C6	-47.350	13.094	26.182	C.2	1	SAM401	0.000	
24	  N6	-48.346	12.942	27.059	N.pl3	1	SAM401	0.000	
25	  N7	-47.522	10.929	24.888	N.2	1	SAM401	0.000	
26	  C8	-46.814	10.412	23.866	C.2	1	SAM401	0.000	
27	  N9	-45.835	11.323	23.517	N.2	1	SAM401	0.000	
@<TRIPOS>BOND
1 1 2 1
2 2 3 1
3 2 5 1
4 3 4 ar
5 3 17 ar
6 5 6 1
7 6 7 1
8 7 8 1
9 7 9 1
10 9 10 1
11 10 11 1
12 10 12 1
13 11 16 1
14 12 13 1
15 12 14 1
16 14 15 1
17 14 16 1
18 16 27 1
19 18 19 ar
20 18 23 ar
21 19 20 ar
22 20 21 ar
23 21 22 ar
24 21 27 ar
25 22 23 ar
26 22 25 ar
27 23 24 1
28 25 26 ar
29 26 27 ar
@<TRIPOS>SUBSTRUCTURE
1	SAM401	1	GROUP	1 A	SAM
