# created with PyMOL 2.4.0
@<TRIPOS>MOLECULE
temp
50 52 1                 
SMALL
USER_CHARGES
@<TRIPOS>ATOM
1	   N	-47.160	11.376	19.371	N.4	1	SAM1	0.000	
2	  CA	-46.763	10.169	18.654	C.3	1	SAM1	0.000	
3	   C	-46.625	10.416	17.150	C.2	1	SAM1	0.000	
4	   O	-46.804	11.538	16.682	O.co2	1	SAM1	0.000	
5	  CB	-47.786	9.063	18.906	C.3	1	SAM1	0.000	
6	  CG	-47.510	8.296	20.209	C.3	1	SAM1	0.000	
7	  SD	-45.995	7.288	20.166	S.3	1	SAM1	0.000	
8	  CE	-46.611	5.694	20.810	C.3	1	SAM1	0.000	
9	 C5'	-45.112	7.791	21.666	C.3	1	SAM1	0.000	
10	 C4'	-44.400	9.129	21.516	C.3	1	SAM1	0.000	
11	 O4'	-45.342	10.177	21.568	O.3	1	SAM1	0.000	
12	 C3'	-43.434	9.405	22.652	C.3	1	SAM1	0.000	
13	 O3'	-42.157	8.903	22.345	O.3	1	SAM1	0.000	
14	 C2'	-43.457	10.912	22.780	C.3	1	SAM1	0.000	
15	 O2'	-42.656	11.514	21.782	O.3	1	SAM1	0.000	
16	 C1'	-44.886	11.219	22.406	C.3	1	SAM1	0.000	
17	 OXT	-46.309	9.501	16.383	O.co2	1	SAM1	0.000	
18	  N1	-46.613	14.265	26.229	N.2	1	SAM1	0.000	
19	  C2	-45.567	14.478	25.345	C.2	1	SAM1	0.000	
20	  N3	-45.222	13.551	24.382	N.2	1	SAM1	0.000	
21	  C4	-45.965	12.403	24.325	C.2	1	SAM1	0.000	
22	  C5	-47.014	12.147	25.207	C.2	1	SAM1	0.000	
23	  C6	-47.350	13.094	26.182	C.2	1	SAM1	0.000	
24	  N6	-48.346	12.942	27.059	N.pl3	1	SAM1	0.000	
25	  N7	-47.522	10.929	24.888	N.2	1	SAM1	0.000	
26	  C8	-46.814	10.412	23.866	C.2	1	SAM1	0.000	
27	  N9	-45.835	11.323	23.517	N.2	1	SAM1	0.000	
28	  HA	-45.785	9.865	19.029	 H	1	SAM1	0.000	
29	 HB1	-47.755	8.361	18.073	 H	1	SAM1	0.000	
30	 HB2	-48.778	9.511	18.967	 H	1	SAM1	0.000	
31	 HG1	-48.355	7.636	20.404	 H	1	SAM1	0.000	
32	 HG2	-47.418	9.019	21.020	 H	1	SAM1	0.000	
33	 HE1	-47.198	5.193	20.040	 H	1	SAM1	0.000	
34	 HE2	-47.237	5.873	21.684	 H	1	SAM1	0.000	
35	 HE3	-45.766	5.064	21.090	 H	1	SAM1	0.000	
36	  H1	-48.065	11.680	19.042	 H	1	SAM1	0.000	
37	  H2	-46.480	12.104	19.206	 H	1	SAM1	0.000	
38	  H2	-45.005	15.398	25.412	 H	1	SAM1	0.000	
39	  H3	-47.210	11.179	20.360	 H	1	SAM1	0.000	
40	  H8	-46.982	9.452	23.400	 H	1	SAM1	0.000	
41	 H1'	-44.860	12.203	21.938	 H	1	SAM1	0.000	
42	 H2'	-43.114	11.257	23.755	 H	1	SAM1	0.000	
43	 H2'	-41.748	11.246	21.938	 H	1	SAM1	0.000	
44	 H3'	-43.706	8.920	23.589	 H	1	SAM1	0.000	
45	 H3'	-41.570	9.141	23.067	 H	1	SAM1	0.000	
46	 H4'	-43.865	9.079	20.567	 H	1	SAM1	0.000	
47	 H61	-48.909	12.104	27.043	 H	1	SAM1	0.000	
48	 H62	-48.536	13.665	27.738	 H	1	SAM1	0.000	
49	H5'1	-44.371	7.028	21.906	 H	1	SAM1	0.000	
50	H5'2	-45.830	7.869	22.482	 H	1	SAM1	0.000	
@<TRIPOS>BOND
1 1 2 1
2 1 36 1
3 1 37 1
4 1 39 1
5 2 3 1
6 2 5 1
7 2 28 1
8 3 4 ar
9 3 17 ar
10 5 6 1
11 5 29 1
12 5 30 1
13 6 7 1
14 6 31 1
15 6 32 1
16 7 8 1
17 7 9 1
18 8 33 1
19 8 34 1
20 8 35 1
21 9 10 1
22 9 49 1
23 9 50 1
24 10 11 1
25 10 12 1
26 10 46 1
27 11 16 1
28 12 13 1
29 12 14 1
30 12 44 1
31 13 45 1
32 14 15 1
33 14 16 1
34 14 42 1
35 15 43 1
36 16 27 1
37 16 41 1
38 18 19 ar
39 18 23 ar
40 19 20 ar
41 19 38 1
42 20 21 ar
43 21 22 ar
44 21 27 ar
45 22 23 ar
46 22 25 ar
47 23 24 1
48 24 47 1
49 24 48 1
50 25 26 ar
51 26 27 ar
52 26 40 1
@<TRIPOS>SUBSTRUCTURE
1	SAM1	1	GROUP	1 A	SAM
