@<TRIPOS>MOLECULE
4JDS.A
51 53 1 0 0 
SMALL
USER_CHARGES


@<TRIPOS>ATOM
  1 N      -47.1600    11.3760    19.3710 N.4   1 SAM  -0.8530 
  2 H1     -48.0653    11.6803    19.0425 H     1 SAM   0.4500 
  3 H2     -46.4799    12.1044    19.2065 H     1 SAM   0.4500 
  4 H3     -47.2096    11.1789    20.3603 H     1 SAM   0.4500 
  5 CA     -46.7630    10.1690    18.6540 C.3   1 SAM   0.3170 
  6 HA     -45.7855     9.8652    19.0286 H     1 SAM   0.0800 
  7 C      -46.6250    10.4160    17.1500 C.2   1 SAM   0.9060 
  8 O      -46.8040    11.5380    16.6820 O.co2 1 SAM  -0.9000 
  9 CB     -47.7860     9.0630    18.9060 C.3   1 SAM  -0.1600 
 10 HB1    -47.7547     8.3607    18.0730 H     1 SAM   0.0800 
 11 HB2    -48.7779     9.5108    18.9667 H     1 SAM   0.0800 
 12 CG     -47.5100     8.2960    20.2090 C.3   1 SAM  -0.1525 
 13 HG1    -48.3555     7.6364    20.4044 H     1 SAM   0.0800 
 14 HG2    -47.4182     9.0188    21.0197 H     1 SAM   0.0800 
 15 SD     -45.9950     7.2880    20.1660 S.3   1 SAM   0.9775 
 16 CE     -46.6110     5.6940    20.8100 C.3   1 SAM  -0.2325 
 17 HE1    -47.1977     5.1933    20.0398 H     1 SAM   0.0800 
 18 HE2    -47.2366     5.8728    21.6845 H     1 SAM   0.0800 
 19 HE3    -45.7664     5.0645    21.0901 H     1 SAM   0.0800 
 20 C5'    -45.1120     7.7910    21.6660 C.3   1 SAM  -0.1525 
 21 H5'1   -44.3712     7.0281    21.9055 H     1 SAM   0.0800 
 22 H5'2   -45.8301     7.8691    22.4823 H     1 SAM   0.0800 
 23 C4'    -44.4000     9.1290    21.5160 C.3   1 SAM   0.2000 
 24 H4'    -43.8653     9.0789    20.5675 H     1 SAM   0.0800 
 25 O4'    -45.3420    10.1770    21.5680 O.3   1 SAM  -0.5600 
 26 C3'    -43.4340     9.4050    22.6520 C.3   1 SAM   0.2000 
 27 H3'    -43.7058     8.9195    23.5893 H     1 SAM   0.0800 
 28 O3'    -42.1570     8.9030    22.3450 O.3   1 SAM  -0.6800 
 29 H3'    -41.5704     9.1409    23.0667 H     1 SAM   0.4000 
 30 C2'    -43.4570    10.9120    22.7800 C.3   1 SAM   0.2000 
 31 H2'    -43.1136    11.2569    23.7553 H     1 SAM   0.0800 
 32 O2'    -42.6560    11.5140    21.7820 O.3   1 SAM  -0.6800 
 33 H2'    -41.7475    11.2461    21.9383 H     1 SAM   0.4000 
 34 C1'    -44.8860    11.2190    22.4060 C.3   1 SAM   0.5691 
 35 H1'    -44.8595    12.2033    21.9385 H     1 SAM   0.0800 
 36 OXT    -46.3090     9.5010    16.3830 O.co2 1 SAM  -0.9000 
 37 N1     -46.6130    14.2650    26.2290 N.2   1 SAM  -0.6610 
 38 C2     -45.5670    14.4780    25.3450 C.2   1 SAM   0.6010 
 39 H2     -45.0045    15.3975    25.4116 H     1 SAM   0.0600 
 40 N3     -45.2220    13.5510    24.3820 N.2   1 SAM  -0.6610 
 41 C4     -45.9650    12.4030    24.3250 C.2   1 SAM   0.5000 
 42 C5     -47.0140    12.1470    25.2070 C.2   1 SAM   0.4500 
 43 C6     -47.3500    13.0940    26.1820 C.2   1 SAM   0.6110 
 44 N6     -48.3460    12.9420    27.0590 N.2   1 SAM  -0.2000 
 45 H62    -48.5358    13.6653    27.7379 H     1 SAM   0.4000 
 46 H61    -48.9093    12.1038    27.0432 H     1 SAM   0.4000 
 47 N7     -47.5220    10.9290    24.8880 N.2   1 SAM  -0.6960 
 48 C8     -46.8140    10.4120    23.8660 C.3   1 SAM   0.4551 
 49 H81    -47.4711    10.2319    23.0152 H     1 SAM   0.0800 
 50 H82    -46.3526     9.4736    24.1737 H     1 SAM   0.0800 
 51 N9     -45.8350    11.3230    23.5170 N.pl3 1 SAM  -0.7882 
@<TRIPOS>BOND
  1   1   2  1   
  2   1   3  1   
  3   1   4  1   
  4   1   5  1   
  5   5   6  1   
  6   5   7  1   
  7   5   9  1   
  8   7   8  ar  
  9   7  36  ar  
 10   9  10  1   
 11   9  11  1   
 12   9  12  1   
 13  12  13  1   
 14  12  14  1   
 15  12  15  1   
 16  15  16  1   
 17  15  20  1   
 18  16  17  1   
 19  16  18  1   
 20  16  19  1   
 21  20  21  1   
 22  20  22  1   
 23  20  23  1   
 24  23  24  1   
 25  23  25  1   
 26  23  26  1   
 27  25  34  1   
 28  26  27  1   
 29  26  28  1   
 30  26  30  1   
 31  28  29  1   
 32  30  31  1   
 33  30  32  1   
 34  30  34  1   
 35  32  33  1   
 36  34  35  1   
 37  34  51  1   
 38  37  38  2   
 39  37  43  1   
 40  38  39  1   
 41  38  40  1   
 42  40  41  2   
 43  41  42  1   
 44  41  51  1   
 45  42  43  1   
 46  42  47  2   
 47  43  44  2   
 48  44  45  1   
 49  44  46  1   
 50  47  48  1   
 51  48  49  1   
 52  48  50  1   
 53  48  51  1   
@<TRIPOS>SUBSTRUCTURE
  1 SAM  25 GROUP 4 A **** 0

# MOE 2022.02 (io_trps.svl 2020.11)
