@<TRIPOS>MOLECULE
6X0P.A
51 53 1 0 0 
SMALL
USER_CHARGES


@<TRIPOS>ATOM
  1 N       11.7780   -42.3870   -25.6400 N.4   1 SAM  -0.8530 
  2 H1      10.8083   -42.6459   -25.7526 H     1 SAM   0.4500 
  3 H2      12.3550   -42.9851   -26.2140 H     1 SAM   0.4500 
  4 H3      11.9047   -41.4255   -25.9221 H     1 SAM   0.4500 
  5 CA      12.1600   -42.5370   -24.2490 C.3   1 SAM   0.3170 
  6 HA      13.2071   -42.2557   -24.1369 H     1 SAM   0.0800 
  7 C       12.0110   -43.9840   -23.8200 C.2   1 SAM   0.9060 
  8 O       12.1330   -44.3010   -22.6330 O.co2 1 SAM  -0.9000 
  9 CB      11.3310   -41.6100   -23.3650 C.3   1 SAM  -0.1600 
 10 HB1     11.3338   -42.0094   -22.3508 H     1 SAM   0.0800 
 11 HB2     10.3100   -41.5941   -23.7464 H     1 SAM   0.0800 
 12 CG      11.8500   -40.1730   -23.3180 C.3   1 SAM  -0.1525 
 13 HG1     11.0928   -39.5430   -22.8513 H     1 SAM   0.0800 
 14 HG2     12.0280   -39.8321   -24.3379 H     1 SAM   0.0800 
 15 SD      13.4040   -40.0210   -22.3700 S.3   1 SAM   0.9775 
 16 CE      13.0600   -38.5560   -21.3750 C.3   1 SAM  -0.2325 
 17 HE1     12.3705   -38.8160   -20.5718 H     1 SAM   0.0800 
 18 HE2     12.6118   -37.7867   -22.0038 H     1 SAM   0.0800 
 19 HE3     13.9899   -38.1801   -20.9482 H     1 SAM   0.0800 
 20 C5'     14.5300   -39.2240   -23.5430 C.3   1 SAM  -0.1525 
 21 H5'1    15.3222   -38.7292   -22.9812 H     1 SAM   0.0800 
 22 H5'2    13.9696   -38.4817   -24.1114 H     1 SAM   0.0800 
 23 C4'     15.1670   -40.2000   -24.5190 C.3   1 SAM   0.2000 
 24 H4'     15.4950   -41.0791   -23.9643 H     1 SAM   0.0800 
 25 O4'     14.2160   -40.4770   -25.5220 O.3   1 SAM  -0.5600 
 26 C3'     16.3430   -39.5540   -25.2500 C.3   1 SAM   0.2000 
 27 H3'     16.2831   -38.4724   -25.3713 H     1 SAM   0.0800 
 28 O3'     17.5410   -39.7390   -24.5170 O.3   1 SAM  -0.6800 
 29 H3'     17.6523   -40.6820   -24.3759 H     1 SAM   0.4000 
 30 C2'     16.3140   -40.2690   -26.5810 C.3   1 SAM   0.2000 
 31 H2'     16.7854   -39.7156   -27.3932 H     1 SAM   0.0800 
 32 O2'     16.9880   -41.5070   -26.4530 O.3   1 SAM  -0.6800 
 33 H2'     17.9081   -41.3175   -26.2554 H     1 SAM   0.4000 
 34 C1'     14.8230   -40.5180   -26.7990 C.3   1 SAM   0.5691 
 35 H1'     14.6761   -41.4611   -27.3254 H     1 SAM   0.0800 
 36 OXT     11.7840   -44.8580   -24.6650 O.co2 1 SAM  -0.9000 
 37 N1      14.2820   -38.3460   -31.4980 N.2   1 SAM  -0.6610 
 38 C2      14.9410   -39.5030   -31.1550 C.2   1 SAM   0.6010 
 39 H2      15.4372   -40.0830   -31.9191 H     1 SAM   0.0600 
 40 N3      14.9740   -39.9300   -29.8420 N.2   1 SAM  -0.6610 
 41 C4      14.3430   -39.2060   -28.9000 C.2   1 SAM   0.5000 
 42 C5      13.6700   -38.0330   -29.2230 C.2   1 SAM   0.4500 
 43 C6      13.6470   -37.5980   -30.5360 C.2   1 SAM   0.6110 
 44 N6      13.0000   -36.4990   -30.9050 N.2   1 SAM  -0.2000 
 45 H62     13.0047   -36.2113   -31.8731 H     1 SAM   0.4000 
 46 H61     12.5031   -35.9507   -30.2176 H     1 SAM   0.4000 
 47 N7      13.1520   -37.5270   -28.0830 N.2   1 SAM  -0.6960 
 48 C8      13.4990   -38.3490   -27.0520 C.3   1 SAM   0.4551 
 49 H81     12.6004   -38.7300   -26.5668 H     1 SAM   0.0800 
 50 H82     14.0972   -37.7972   -26.3269 H     1 SAM   0.0800 
 51 N9      14.2340   -39.3980   -27.5590 N.pl3 1 SAM  -0.7882 
@<TRIPOS>BOND
  1   1   2  1   
  2   1   3  1   
  3   1   4  1   
  4   1   5  1   
  5   5   6  1   
  6   5   7  1   
  7   5   9  1   
  8   7   8  ar  
  9   7  36  ar  
 10   9  10  1   
 11   9  11  1   
 12   9  12  1   
 13  12  13  1   
 14  12  14  1   
 15  12  15  1   
 16  15  16  1   
 17  15  20  1   
 18  16  17  1   
 19  16  18  1   
 20  16  19  1   
 21  20  21  1   
 22  20  22  1   
 23  20  23  1   
 24  23  24  1   
 25  23  25  1   
 26  23  26  1   
 27  25  34  1   
 28  26  27  1   
 29  26  28  1   
 30  26  30  1   
 31  28  29  1   
 32  30  31  1   
 33  30  32  1   
 34  30  34  1   
 35  32  33  1   
 36  34  35  1   
 37  34  51  1   
 38  37  38  2   
 39  37  43  1   
 40  38  39  1   
 41  38  40  1   
 42  40  41  2   
 43  41  42  1   
 44  41  51  1   
 45  42  43  1   
 46  42  47  2   
 47  43  44  2   
 48  44  45  1   
 49  44  46  1   
 50  47  48  1   
 51  48  49  1   
 52  48  50  1   
 53  48  51  1   
@<TRIPOS>SUBSTRUCTURE
  1 SAM  25 GROUP 4 A **** 0

# MOE 2022.02 (io_trps.svl 2020.11)
