# created with PyMOL 2.5.0
@<TRIPOS>MOLECULE
6X0P
27 29 1                 
SMALL
USER_CHARGES
@<TRIPOS>ATOM
1	   N	11.778	-42.387	-25.640	N.3	1	SAM2305	0.000	
2	  CA	12.160	-42.537	-24.249	C.3	1	SAM2305	0.000	
3	   C	12.011	-43.984	-23.820	C.2	1	SAM2305	0.000	
4	   O	12.133	-44.301	-22.633	O.co2	1	SAM2305	0.000	
5	  CB	11.331	-41.610	-23.365	C.3	1	SAM2305	0.000	
6	  CG	11.850	-40.173	-23.318	C.3	1	SAM2305	0.000	
7	  SD	13.404	-40.021	-22.370	S.3	1	SAM2305	0.000	
8	  CE	13.060	-38.556	-21.375	C.3	1	SAM2305	0.000	
9	 C5'	14.530	-39.224	-23.543	C.3	1	SAM2305	0.000	
10	 C4'	15.167	-40.200	-24.519	C.3	1	SAM2305	0.000	
11	 O4'	14.216	-40.477	-25.522	O.3	1	SAM2305	0.000	
12	 C3'	16.343	-39.554	-25.250	C.3	1	SAM2305	0.000	
13	 O3'	17.541	-39.739	-24.517	O.3	1	SAM2305	0.000	
14	 C2'	16.314	-40.269	-26.581	C.3	1	SAM2305	0.000	
15	 O2'	16.988	-41.507	-26.453	O.3	1	SAM2305	0.000	
16	 C1'	14.823	-40.518	-26.799	C.3	1	SAM2305	0.000	
17	 OXT	11.784	-44.858	-24.665	O.co2	1	SAM2305	0.000	
18	  N1	14.282	-38.346	-31.498	N.2	1	SAM2305	0.000	
19	  C2	14.941	-39.503	-31.155	C.2	1	SAM2305	0.000	
20	  N3	14.974	-39.930	-29.842	N.2	1	SAM2305	0.000	
21	  C4	14.343	-39.206	-28.900	C.2	1	SAM2305	0.000	
22	  C5	13.670	-38.033	-29.223	C.2	1	SAM2305	0.000	
23	  C6	13.647	-37.598	-30.536	C.2	1	SAM2305	0.000	
24	  N6	13.000	-36.499	-30.905	N.pl3	1	SAM2305	0.000	
25	  N7	13.152	-37.527	-28.083	N.2	1	SAM2305	0.000	
26	  C8	13.499	-38.349	-27.052	C.2	1	SAM2305	0.000	
27	  N9	14.234	-39.398	-27.559	N.2	1	SAM2305	0.000	
@<TRIPOS>BOND
1 1 2 1
2 2 3 1
3 2 5 1
4 3 4 ar
5 3 17 ar
6 5 6 1
7 6 7 1
8 7 8 1
9 7 9 1
10 9 10 1
11 10 11 1
12 10 12 1
13 11 16 1
14 12 13 1
15 12 14 1
16 14 15 1
17 14 16 1
18 16 27 1
19 18 19 ar
20 18 23 ar
21 19 20 ar
22 20 21 ar
23 21 22 ar
24 21 27 ar
25 22 23 ar
26 22 25 ar
27 23 24 1
28 25 26 ar
29 26 27 ar
@<TRIPOS>SUBSTRUCTURE
1	SAM2305	1	GROUP	1 A	SAM
