@<TRIPOS>MOLECULE
6X0P.A
43 45 1 0 0 
SMALL
USER_CHARGES


@<TRIPOS>ATOM
  1 N01     18.0680   -34.1610   -20.3680 N.am  1 UK  -0.8000 
  2 H011    17.6149   -34.1109   -19.4667 H     1 UK   0.3700 
  3 H012    18.8420   -33.5474   -20.5789 H     1 UK   0.3700 
  4 C02     17.6110   -35.1060   -21.3510 C.2   1 UK   0.3538 
  5 C03     18.3500   -35.1460   -22.6710 C.ar  1 UK   0.0862 
  6 C04     19.1780   -34.0910   -23.0140 C.ar  1 UK  -0.1500 
  7 H04     19.2860   -33.2484   -22.3471 H     1 UK   0.1500 
  8 C05     19.8670   -34.1190   -24.2140 C.ar  1 UK   0.0540 
  9 C06     20.7960   -32.9840   -24.6270 C.2   1 UK  -0.0540 
 10 C07     21.9850   -33.1880   -25.3060 C.2   1 UK  -0.3016 
 11 H07     22.3865   -34.1435   -25.6097 H     1 UK   0.1500 
 12 N08     22.5440   -32.0060   -25.5180 N.pl3 1 UK   0.0476 
 13 C09     23.8210   -31.7990   -26.1960 C.3   1 UK   0.0956 
 14 H091    24.6126   -32.3042   -25.6426 H     1 UK   0.0800 
 15 H092    24.0371   -30.7318   -26.2465 H     1 UK   0.0800 
 16 C10     23.7430   -32.3710   -27.6110 C.3   1 UK   0.1200 
 17 H101    23.2509   -33.3434   -27.5924 H     1 UK   0.0800 
 18 H102    24.7458   -32.4792   -28.0241 H     1 UK   0.0800 
 19 O11     22.9980   -31.4720   -28.3910 O.3   1 UK  -0.6800 
 20 H11     22.9526   -31.8286   -29.2812 H     1 UK   0.4000 
 21 C12     21.7470   -31.0180   -25.0020 C.ar  1 UK  -0.1516 
 22 C13     20.6410   -31.5940   -24.4280 C.ar  1 UK   0.0000 
 23 C14     19.6510   -30.7750   -23.8200 C.ar  1 UK  -0.1500 
 24 H14     18.7767   -31.2254   -23.3738 H     1 UK   0.1500 
 25 C15     19.8090   -29.3920   -23.8000 C.ar  1 UK  -0.1500 
 26 H15     19.0567   -28.7667   -23.3424 H     1 UK   0.1500 
 27 C16     20.9460   -28.8160   -24.3750 C.ar  1 UK  -0.1435 
 28 C17     21.1290   -27.3010   -24.3620 C.3   1 UK   0.4865 
 29 H171    21.9437   -27.0368   -23.6879 H     1 UK   0.0800 
 30 H172    20.2088   -26.8243   -24.0242 H     1 UK   0.0800 
 31 N18     21.4460   -26.8510   -25.7130 N.4   1 UK  -0.8530 
 32 H181    22.2988   -27.2939   -26.0239 H     1 UK   0.4500 
 33 H182    21.5676   -25.8483   -25.7141 H     1 UK   0.4500 
 34 H183    20.6911   -27.0992   -26.3364 H     1 UK   0.4500 
 35 C19     21.9080   -29.6120   -24.9690 C.ar  1 UK  -0.1500 
 36 H19     22.7846   -29.1598   -25.4090 H     1 UK   0.1500 
 37 C20     19.7250   -35.2020   -25.0680 C.ar  1 UK  -0.1500 
 38 H20     20.2524   -35.2209   -26.0103 H     1 UK   0.1500 
 39 C21     18.9050   -36.2600   -24.7100 C.ar  1 UK  -0.1500 
 40 H21     18.8092   -37.1114   -25.3675 H     1 UK   0.1500 
 41 C22     18.2100   -36.2320   -23.5180 C.ar  1 UK  -0.1500 
 42 H22     17.5611   -37.0520   -23.2478 H     1 UK   0.1500 
 43 S23     16.3750   -36.0910   -21.0240 S.2   1 UK  -0.3800 
@<TRIPOS>BOND
  1   1   2  1   
  2   1   3  1   
  3   1   4  am  
  4   4   5  1   
  5   4  43  2   
  6   5   6  ar  
  7   5  41  ar  
  8   6   7  1   
  9   6   8  ar  
 10   8   9  1   
 11   8  37  ar  
 12   9  10  2   
 13   9  22  1   
 14  10  11  1   
 15  10  12  1   
 16  12  13  1   
 17  12  21  1   
 18  13  14  1   
 19  13  15  1   
 20  13  16  1   
 21  16  17  1   
 22  16  18  1   
 23  16  19  1   
 24  19  20  1   
 25  21  22  ar  
 26  21  35  ar  
 27  22  23  ar  
 28  23  24  1   
 29  23  25  ar  
 30  25  26  1   
 31  25  27  ar  
 32  27  28  1   
 33  27  35  ar  
 34  28  29  1   
 35  28  30  1   
 36  28  31  1   
 37  31  32  1   
 38  31  33  1   
 39  31  34  1   
 40  35  36  1   
 41  37  38  1   
 42  37  39  ar  
 43  39  40  1   
 44  39  41  ar  
 45  41  42  1   
@<TRIPOS>SUBSTRUCTURE
  1 UK   9 GROUP 4 A **** 0

# MOE 2022.02 (io_trps.svl 2020.11)
