# created with PyMOL 2.5.2
@<TRIPOS>MOLECULE
6X0P
23 25 1                 
SMALL
USER_CHARGES
@<TRIPOS>ATOM
1	 N01	18.068	-34.161	-20.368	N.pl3	1	UK72301	0.000	
2	 C02	17.611	-35.106	-21.351	C.2	1	UK72301	0.000	
3	 C03	18.350	-35.146	-22.671	C.2	1	UK72301	0.000	
4	 C04	19.178	-34.091	-23.014	C.2	1	UK72301	0.000	
5	 C05	19.867	-34.119	-24.214	C.2	1	UK72301	0.000	
6	 C06	20.796	-32.984	-24.627	C.2	1	UK72301	0.000	
7	 C07	21.985	-33.188	-25.306	C.2	1	UK72301	0.000	
8	 N08	22.544	-32.006	-25.518	N.2	1	UK72301	0.000	
9	 C09	23.821	-31.799	-26.196	C.3	1	UK72301	0.000	
10	 C10	23.743	-32.371	-27.611	C.3	1	UK72301	0.000	
11	 O11	22.998	-31.472	-28.391	O.3	1	UK72301	0.000	
12	 C12	21.747	-31.018	-25.002	C.2	1	UK72301	0.000	
13	 C13	20.641	-31.594	-24.428	C.2	1	UK72301	0.000	
14	 C14	19.651	-30.775	-23.820	C.2	1	UK72301	0.000	
15	 C15	19.809	-29.392	-23.800	C.2	1	UK72301	0.000	
16	 C16	20.946	-28.816	-24.375	C.2	1	UK72301	0.000	
17	 C17	21.129	-27.301	-24.362	C.3	1	UK72301	0.000	
18	 N18	21.446	-26.851	-25.713	N.3	1	UK72301	0.000	
19	 C19	21.908	-29.612	-24.969	C.2	1	UK72301	0.000	
20	 C20	19.725	-35.202	-25.068	C.2	1	UK72301	0.000	
21	 C21	18.905	-36.260	-24.710	C.2	1	UK72301	0.000	
22	 C22	18.210	-36.232	-23.518	C.2	1	UK72301	0.000	
23	 S23	16.375	-36.091	-21.024	S.2	1	UK72301	0.000	
@<TRIPOS>BOND
1 1 2 1
2 2 3 1
3 3 4 ar
4 3 22 ar
5 4 5 ar
6 5 6 1
7 5 20 ar
8 6 7 ar
9 6 13 ar
10 7 8 ar
11 8 9 1
12 8 12 ar
13 9 10 1
14 10 11 1
15 12 13 ar
16 12 19 ar
17 13 14 ar
18 14 15 ar
19 15 16 ar
20 16 17 1
21 16 19 ar
22 17 18 1
23 20 21 ar
24 21 22 ar
25 2 23 2
@<TRIPOS>SUBSTRUCTURE
1	UK72301	1	GROUP	1 A	UK7
