# created with PyMOL 2.5.0
@<TRIPOS>MOLECULE
7EDC
27 29 1                 
SMALL
USER_CHARGES
@<TRIPOS>ATOM
1	   N	6.870	8.271	-4.223	N.3	1	SAM300	0.000	
2	  CA	7.663	9.362	-4.778	C.3	1	SAM300	0.000	
3	   C	6.865	10.684	-4.615	C.2	1	SAM300	0.000	
4	   O	5.992	10.929	-3.708	O.co2	1	SAM300	0.000	
5	  CB	8.042	9.064	-6.247	C.3	1	SAM300	0.000	
6	  CG	8.226	7.562	-6.667	C.3	1	SAM300	0.000	
7	  SD	9.904	6.801	-6.602	S.3	1	SAM300	0.000	
8	  CE	10.480	6.851	-8.292	C.3	1	SAM300	0.000	
9	 C5'	9.403	5.067	-6.533	C.3	1	SAM300	0.000	
10	 C4'	10.122	4.232	-5.483	C.3	1	SAM300	0.000	
11	 O4'	9.172	3.323	-4.875	O.3	1	SAM300	0.000	
12	 C3'	11.265	3.360	-6.009	C.3	1	SAM300	0.000	
13	 O3'	12.516	3.957	-5.694	O.3	1	SAM300	0.000	
14	 C2'	11.084	2.026	-5.275	C.3	1	SAM300	0.000	
15	 O2'	11.877	1.987	-4.092	O.3	1	SAM300	0.000	
16	 C1'	9.560	1.988	-5.102	C.3	1	SAM300	0.000	
17	 OXT	7.068	11.630	-5.386	O.co2	1	SAM300	0.000	
18	  N1	8.169	-2.080	-8.079	N.2	1	SAM300	0.000	
19	  C2	8.993	-1.979	-7.027	C.2	1	SAM300	0.000	
20	  N3	9.307	-0.909	-6.298	N.2	1	SAM300	0.000	
21	  C4	8.679	0.195	-6.733	C.2	1	SAM300	0.000	
22	  C5	7.797	0.247	-7.798	C.2	1	SAM300	0.000	
23	  C6	7.530	-0.955	-8.487	C.2	1	SAM300	0.000	
24	  N6	6.701	-1.036	-9.524	N.pl3	1	SAM300	0.000	
25	  N7	7.345	1.541	-7.984	N.2	1	SAM300	0.000	
26	  C8	7.935	2.225	-7.035	C.2	1	SAM300	0.000	
27	  N9	8.777	1.482	-6.240	N.2	1	SAM300	0.000	
@<TRIPOS>BOND
1 1 2 1
2 2 3 1
3 2 5 1
4 3 4 ar
5 3 17 ar
6 5 6 1
7 6 7 1
8 7 8 1
9 7 9 1
10 9 10 1
11 10 11 1
12 10 12 1
13 11 16 1
14 12 13 1
15 12 14 1
16 14 15 1
17 14 16 1
18 16 27 1
19 18 19 ar
20 18 23 ar
21 19 20 ar
22 20 21 ar
23 21 22 ar
24 21 27 ar
25 22 23 ar
26 22 25 ar
27 23 24 1
28 25 26 ar
29 26 27 ar
@<TRIPOS>SUBSTRUCTURE
1	SAM300	1	GROUP	1 A	SAM
