@<TRIPOS>MOLECULE
7EDC.A
51 53 1 0 0 
SMALL
USER_CHARGES


@<TRIPOS>ATOM
  1 N        6.8700     8.2710    -4.2230 N.4   1 SAM  -0.8530 
  2 H1       6.0028     8.1911    -4.7345 H     1 SAM   0.4500 
  3 H2       6.6713     8.4598    -3.2509 H     1 SAM   0.4500 
  4 H3       7.3867     7.4065    -4.2993 H     1 SAM   0.4500 
  5 CA       7.6630     9.3620    -4.7780 C.3   1 SAM   0.3170 
  6 HA       8.6049     9.4656    -4.2394 H     1 SAM   0.0800 
  7 C        6.8650    10.6840    -4.6150 C.2   1 SAM   0.9060 
  8 O        5.9920    10.9290    -3.7080 O.co2 1 SAM  -0.9000 
  9 CB       8.0420     9.0640    -6.2470 C.3   1 SAM  -0.1600 
 10 HB1      8.9828     9.5756    -6.4499 H     1 SAM   0.0800 
 11 HB2      7.2572     9.4835    -6.8764 H     1 SAM   0.0800 
 12 CG       8.2260     7.5620    -6.6670 C.3   1 SAM  -0.1525 
 13 HG1      7.8782     7.4756    -7.6964 H     1 SAM   0.0800 
 14 HG2      7.5836     6.9695    -6.0156 H     1 SAM   0.0800 
 15 SD       9.9040     6.8010    -6.6020 S.3   1 SAM   0.9775 
 16 CE      10.4800     6.8510    -8.2920 C.3   1 SAM  -0.2325 
 17 HE1     10.8345     7.8550    -8.5255 H     1 SAM   0.0800 
 18 HE2      9.6615     6.5895    -8.9627 H     1 SAM   0.0800 
 19 HE3     11.2955     6.1390    -8.4191 H     1 SAM   0.0800 
 20 C5'      9.4030     5.0670    -6.5330 C.3   1 SAM  -0.1525 
 21 H5'1     9.5937     4.6206    -7.5090 H     1 SAM   0.0800 
 22 H5'2     8.3346     5.0317    -6.3199 H     1 SAM   0.0800 
 23 C4'     10.1220     4.2320    -5.4830 C.3   1 SAM   0.2000 
 24 H4'     10.5503     4.9600    -4.7940 H     1 SAM   0.0800 
 25 O4'      9.1720     3.3230    -4.8750 O.3   1 SAM  -0.5600 
 26 C3'     11.2650     3.3600    -6.0090 C.3   1 SAM   0.2000 
 27 H3'     11.2491     3.2360    -7.0918 H     1 SAM   0.0800 
 28 O3'     12.5160     3.9570    -5.6940 O.3   1 SAM  -0.6800 
 29 H3'     13.2060     3.3617    -5.9960 H     1 SAM   0.4000 
 30 C2'     11.0840     2.0260    -5.2750 C.3   1 SAM   0.2000 
 31 H2'     11.4338     1.1283    -5.7847 H     1 SAM   0.0800 
 32 O2'     11.8770     1.9870    -4.0920 O.3   1 SAM  -0.6800 
 33 H2'     11.6426     2.7510    -3.5601 H     1 SAM   0.4000 
 34 C1'      9.5600     1.9880    -5.1020 C.3   1 SAM   0.5691 
 35 H1'      9.3530     1.2871    -4.2933 H     1 SAM   0.0800 
 36 OXT      7.0680    11.6300    -5.3860 O.co2 1 SAM  -0.9000 
 37 N1       8.1690    -2.0800    -8.0790 N.2   1 SAM  -0.6610 
 38 C2       8.9930    -1.9790    -7.0270 C.2   1 SAM   0.6010 
 39 H2       9.4723    -2.8989    -6.7264 H     1 SAM   0.0600 
 40 N3       9.3070    -0.9090    -6.2980 N.2   1 SAM  -0.6610 
 41 C4       8.6790     0.1950    -6.7330 C.2   1 SAM   0.5000 
 42 C5       7.7970     0.2470    -7.7980 C.2   1 SAM   0.4500 
 43 C6       7.5300    -0.9550    -8.4870 C.2   1 SAM   0.6110 
 44 N6       6.7010    -1.0360    -9.5240 N.2   1 SAM  -0.2000 
 45 H62      6.5475    -1.9242    -9.9796 H     1 SAM   0.4000 
 46 H61      6.2250    -0.2093    -9.8558 H     1 SAM   0.4000 
 47 N7       7.3450     1.5410    -7.9840 N.2   1 SAM  -0.6960 
 48 C8       7.9350     2.2250    -7.0350 C.3   1 SAM   0.4551 
 49 H81      7.1644     2.6626    -6.4003 H     1 SAM   0.0800 
 50 H82      8.5179     3.0203    -7.4996 H     1 SAM   0.0800 
 51 N9       8.7770     1.4820    -6.2400 N.pl3 1 SAM  -0.7882 
@<TRIPOS>BOND
  1   1   2  1   
  2   1   3  1   
  3   1   4  1   
  4   1   5  1   
  5   5   6  1   
  6   5   7  1   
  7   5   9  1   
  8   7   8  ar  
  9   7  36  ar  
 10   9  10  1   
 11   9  11  1   
 12   9  12  1   
 13  12  13  1   
 14  12  14  1   
 15  12  15  1   
 16  15  16  1   
 17  15  20  1   
 18  16  17  1   
 19  16  18  1   
 20  16  19  1   
 21  20  21  1   
 22  20  22  1   
 23  20  23  1   
 24  23  24  1   
 25  23  25  1   
 26  23  26  1   
 27  25  34  1   
 28  26  27  1   
 29  26  28  1   
 30  26  30  1   
 31  28  29  1   
 32  30  31  1   
 33  30  32  1   
 34  30  34  1   
 35  32  33  1   
 36  34  35  1   
 37  34  51  1   
 38  37  38  2   
 39  37  43  1   
 40  38  39  1   
 41  38  40  1   
 42  40  41  2   
 43  41  42  1   
 44  41  51  1   
 45  42  43  1   
 46  42  47  2   
 47  43  44  2   
 48  44  45  1   
 49  44  46  1   
 50  47  48  1   
 51  48  49  1   
 52  48  50  1   
 53  48  51  1   
@<TRIPOS>SUBSTRUCTURE
  1 SAM  20 GROUP 4 A **** 0

# MOE 2022.02 (io_trps.svl 2020.11)
