# created with PyMOL 2.4.0
@<TRIPOS>MOLECULE
temp
50 52 1                 
SMALL
USER_CHARGES
@<TRIPOS>ATOM
1	   N	6.870	8.271	-4.223	N.4	1	SAM1	0.000	
2	  CA	7.663	9.362	-4.778	C.3	1	SAM1	0.000	
3	   C	6.865	10.684	-4.615	C.2	1	SAM1	0.000	
4	   O	5.992	10.929	-3.708	O.co2	1	SAM1	0.000	
5	  CB	8.042	9.064	-6.247	C.3	1	SAM1	0.000	
6	  CG	8.226	7.562	-6.667	C.3	1	SAM1	0.000	
7	  SD	9.904	6.801	-6.602	S.3	1	SAM1	0.000	
8	  CE	10.480	6.851	-8.292	C.3	1	SAM1	0.000	
9	 C5'	9.403	5.067	-6.533	C.3	1	SAM1	0.000	
10	 C4'	10.122	4.232	-5.483	C.3	1	SAM1	0.000	
11	 O4'	9.172	3.323	-4.875	O.3	1	SAM1	0.000	
12	 C3'	11.265	3.360	-6.009	C.3	1	SAM1	0.000	
13	 O3'	12.516	3.957	-5.694	O.3	1	SAM1	0.000	
14	 C2'	11.084	2.026	-5.275	C.3	1	SAM1	0.000	
15	 O2'	11.877	1.987	-4.092	O.3	1	SAM1	0.000	
16	 C1'	9.560	1.988	-5.102	C.3	1	SAM1	0.000	
17	 OXT	7.068	11.630	-5.386	O.co2	1	SAM1	0.000	
18	  N1	8.169	-2.080	-8.079	N.2	1	SAM1	0.000	
19	  C2	8.993	-1.979	-7.027	C.2	1	SAM1	0.000	
20	  N3	9.307	-0.909	-6.298	N.2	1	SAM1	0.000	
21	  C4	8.679	0.195	-6.733	C.2	1	SAM1	0.000	
22	  C5	7.797	0.247	-7.798	C.2	1	SAM1	0.000	
23	  C6	7.530	-0.955	-8.487	C.2	1	SAM1	0.000	
24	  N6	6.701	-1.036	-9.524	N.pl3	1	SAM1	0.000	
25	  N7	7.345	1.541	-7.984	N.2	1	SAM1	0.000	
26	  C8	7.935	2.225	-7.035	C.2	1	SAM1	0.000	
27	  N9	8.777	1.482	-6.240	N.2	1	SAM1	0.000	
28	  HA	8.605	9.466	-4.239	 H	1	SAM1	0.000	
29	 HB1	8.983	9.576	-6.450	 H	1	SAM1	0.000	
30	 HB2	7.257	9.483	-6.876	 H	1	SAM1	0.000	
31	 HG1	7.878	7.476	-7.696	 H	1	SAM1	0.000	
32	 HG2	7.584	6.970	-6.016	 H	1	SAM1	0.000	
33	 HE1	10.835	7.855	-8.526	 H	1	SAM1	0.000	
34	 HE2	9.661	6.589	-8.963	 H	1	SAM1	0.000	
35	 HE3	11.295	6.139	-8.419	 H	1	SAM1	0.000	
36	  H1	6.003	8.191	-4.734	 H	1	SAM1	0.000	
37	  H2	6.671	8.460	-3.251	 H	1	SAM1	0.000	
38	  H2	9.472	-2.899	-6.726	 H	1	SAM1	0.000	
39	  H3	7.387	7.406	-4.299	 H	1	SAM1	0.000	
40	  H8	7.774	3.283	-6.889	 H	1	SAM1	0.000	
41	 H1'	9.353	1.287	-4.293	 H	1	SAM1	0.000	
42	 H2'	11.434	1.128	-5.785	 H	1	SAM1	0.000	
43	 H2'	12.799	2.018	-4.359	 H	1	SAM1	0.000	
44	 H3'	11.249	3.236	-7.092	 H	1	SAM1	0.000	
45	 H3'	12.550	4.075	-4.742	 H	1	SAM1	0.000	
46	 H4'	10.550	4.960	-4.794	 H	1	SAM1	0.000	
47	 H61	6.225	-0.209	-9.856	 H	1	SAM1	0.000	
48	 H62	6.548	-1.924	-9.980	 H	1	SAM1	0.000	
49	H5'1	9.594	4.621	-7.509	 H	1	SAM1	0.000	
50	H5'2	8.335	5.032	-6.320	 H	1	SAM1	0.000	
@<TRIPOS>BOND
1 1 2 1
2 1 36 1
3 1 37 1
4 1 39 1
5 2 3 1
6 2 5 1
7 2 28 1
8 3 4 ar
9 3 17 ar
10 5 6 1
11 5 29 1
12 5 30 1
13 6 7 1
14 6 31 1
15 6 32 1
16 7 8 1
17 7 9 1
18 8 33 1
19 8 34 1
20 8 35 1
21 9 10 1
22 9 49 1
23 9 50 1
24 10 11 1
25 10 12 1
26 10 46 1
27 11 16 1
28 12 13 1
29 12 14 1
30 12 44 1
31 13 45 1
32 14 15 1
33 14 16 1
34 14 42 1
35 15 43 1
36 16 27 1
37 16 41 1
38 18 19 ar
39 18 23 ar
40 19 20 ar
41 19 38 1
42 20 21 ar
43 21 22 ar
44 21 27 ar
45 22 23 ar
46 22 25 ar
47 23 24 1
48 24 47 1
49 24 48 1
50 25 26 ar
51 26 27 ar
52 26 40 1
@<TRIPOS>SUBSTRUCTURE
1	SAM1	1	GROUP	1 A	SAM
