# created with PyMOL 2.4.0
@<TRIPOS>MOLECULE
temp
50 52 1                 
SMALL
USER_CHARGES
@<TRIPOS>ATOM
1	   N	42.423	11.316	11.929	N.4	1	SAM1	0.000	
2	  CA	41.804	12.443	11.274	C.3	1	SAM1	0.000	
3	   C	40.753	11.912	10.408	C.2	1	SAM1	0.000	
4	   O	40.813	10.752	9.985	O.co2	1	SAM1	0.000	
5	  CB	42.839	13.269	10.486	C.3	1	SAM1	0.000	
6	  CG	43.643	12.525	9.415	C.3	1	SAM1	0.000	
7	  SD	44.865	13.405	8.578	S.3	1	SAM1	0.000	
8	  CE	45.139	12.269	7.359	C.3	1	SAM1	0.000	
9	 C5'	46.400	13.415	9.264	C.3	1	SAM1	0.000	
10	 C4'	46.615	14.083	10.624	C.3	1	SAM1	0.000	
11	 O4'	47.944	13.876	11.167	O.3	1	SAM1	0.000	
12	 C3'	46.417	15.576	10.680	C.3	1	SAM1	0.000	
13	 O3'	45.605	15.912	11.795	O.3	1	SAM1	0.000	
14	 C2'	47.824	16.092	10.897	C.3	1	SAM1	0.000	
15	 O2'	47.892	17.369	11.498	O.3	1	SAM1	0.000	
16	 C1'	48.479	15.057	11.774	C.3	1	SAM1	0.000	
17	 OXT	39.908	12.728	10.133	O.co2	1	SAM1	0.000	
18	  N1	52.739	13.475	14.238	N.2	1	SAM1	0.000	
19	  C2	51.444	13.550	14.688	C.2	1	SAM1	0.000	
20	  N3	50.459	14.008	13.933	N.2	1	SAM1	0.000	
21	  C4	50.724	14.430	12.640	C.2	1	SAM1	0.000	
22	  C5	52.061	14.400	12.087	C.2	1	SAM1	0.000	
23	  C6	53.063	13.871	13.004	C.2	1	SAM1	0.000	
24	  N6	54.321	13.785	12.577	N.pl3	1	SAM1	0.000	
25	  N7	52.034	14.852	10.791	N.2	1	SAM1	0.000	
26	  C8	50.743	15.170	10.560	C.2	1	SAM1	0.000	
27	  N9	49.973	14.926	11.648	N.2	1	SAM1	0.000	
28	  HA	41.375	13.127	12.005	 H	1	SAM1	0.000	
29	 HB1	43.548	13.681	11.204	 H	1	SAM1	0.000	
30	 HB2	42.306	14.082	9.993	 H	1	SAM1	0.000	
31	 HG1	42.935	12.161	8.670	 H	1	SAM1	0.000	
32	 HG2	44.127	11.677	9.901	 H	1	SAM1	0.000	
33	 HE1	44.224	12.124	6.786	 H	1	SAM1	0.000	
34	 HE2	45.442	11.322	7.806	 H	1	SAM1	0.000	
35	 HE3	45.928	12.628	6.699	 H	1	SAM1	0.000	
36	  H1	42.814	10.696	11.234	 H	1	SAM1	0.000	
37	  H2	41.730	10.820	12.472	 H	1	SAM1	0.000	
38	  H2	51.222	13.224	15.693	 H	1	SAM1	0.000	
39	  H3	43.158	11.643	12.539	 H	1	SAM1	0.000	
40	  H8	50.371	15.568	9.627	 H	1	SAM1	0.000	
41	 H1'	48.301	15.274	12.827	 H	1	SAM1	0.000	
42	 H2'	48.320	16.230	9.936	 H	1	SAM1	0.000	
43	 H2'	47.432	17.985	10.923	 H	1	SAM1	0.000	
44	 H3'	45.932	15.986	9.795	 H	1	SAM1	0.000	
45	 H3'	45.550	16.869	11.836	 H	1	SAM1	0.000	
46	 H4'	45.836	13.585	11.201	 H	1	SAM1	0.000	
47	 H61	54.558	14.082	11.641	 H	1	SAM1	0.000	
48	 H62	55.038	13.423	13.189	 H	1	SAM1	0.000	
49	H5'1	47.060	13.917	8.557	 H	1	SAM1	0.000	
50	H5'2	46.706	12.374	9.370	 H	1	SAM1	0.000	
@<TRIPOS>BOND
1 1 2 1
2 1 36 1
3 1 37 1
4 1 39 1
5 2 3 1
6 2 5 1
7 2 28 1
8 3 4 ar
9 3 17 ar
10 5 6 1
11 5 29 1
12 5 30 1
13 6 7 1
14 6 31 1
15 6 32 1
16 7 8 1
17 7 9 1
18 8 33 1
19 8 34 1
20 8 35 1
21 9 10 1
22 9 49 1
23 9 50 1
24 10 11 1
25 10 12 1
26 10 46 1
27 11 16 1
28 12 13 1
29 12 14 1
30 12 44 1
31 13 45 1
32 14 15 1
33 14 16 1
34 14 42 1
35 15 43 1
36 16 27 1
37 16 41 1
38 18 19 ar
39 18 23 ar
40 19 20 ar
41 19 38 1
42 20 21 ar
43 21 22 ar
44 21 27 ar
45 22 23 ar
46 22 25 ar
47 23 24 1
48 24 47 1
49 24 48 1
50 25 26 ar
51 26 27 ar
52 26 40 1
@<TRIPOS>SUBSTRUCTURE
1	SAM1	1	GROUP	1 A	SAM
