# created with PyMOL 2.5.0
@<TRIPOS>MOLECULE
6IFT
27 29 1                 
SMALL
USER_CHARGES
@<TRIPOS>ATOM
1	   N	42.423	11.316	11.929	N.3	1	SAM301	0.000	
2	  CA	41.804	12.443	11.274	C.3	1	SAM301	0.000	
3	   C	40.753	11.912	10.408	C.2	1	SAM301	0.000	
4	   O	40.813	10.752	9.985	O.co2	1	SAM301	0.000	
5	  CB	42.839	13.269	10.486	C.3	1	SAM301	0.000	
6	  CG	43.643	12.525	9.415	C.3	1	SAM301	0.000	
7	  SD	44.865	13.405	8.578	S.3	1	SAM301	0.000	
8	  CE	45.139	12.269	7.359	C.3	1	SAM301	0.000	
9	 C5'	46.400	13.415	9.264	C.3	1	SAM301	0.000	
10	 C4'	46.615	14.083	10.624	C.3	1	SAM301	0.000	
11	 O4'	47.944	13.876	11.167	O.3	1	SAM301	0.000	
12	 C3'	46.417	15.576	10.680	C.3	1	SAM301	0.000	
13	 O3'	45.605	15.912	11.795	O.3	1	SAM301	0.000	
14	 C2'	47.824	16.092	10.897	C.3	1	SAM301	0.000	
15	 O2'	47.892	17.369	11.498	O.3	1	SAM301	0.000	
16	 C1'	48.479	15.057	11.774	C.3	1	SAM301	0.000	
17	 OXT	39.908	12.728	10.133	O.co2	1	SAM301	0.000	
18	  N1	52.739	13.475	14.238	N.2	1	SAM301	0.000	
19	  C2	51.444	13.550	14.688	C.2	1	SAM301	0.000	
20	  N3	50.459	14.008	13.933	N.2	1	SAM301	0.000	
21	  C4	50.724	14.430	12.640	C.2	1	SAM301	0.000	
22	  C5	52.061	14.400	12.087	C.2	1	SAM301	0.000	
23	  C6	53.063	13.871	13.004	C.2	1	SAM301	0.000	
24	  N6	54.321	13.785	12.577	N.pl3	1	SAM301	0.000	
25	  N7	52.034	14.852	10.791	N.2	1	SAM301	0.000	
26	  C8	50.743	15.170	10.560	C.2	1	SAM301	0.000	
27	  N9	49.973	14.926	11.648	N.2	1	SAM301	0.000	
@<TRIPOS>BOND
1 1 2 1
2 2 3 1
3 2 5 1
4 3 4 ar
5 3 17 ar
6 5 6 1
7 6 7 1
8 7 8 1
9 7 9 1
10 9 10 1
11 10 11 1
12 10 12 1
13 11 16 1
14 12 13 1
15 12 14 1
16 14 15 1
17 14 16 1
18 16 27 1
19 18 19 ar
20 18 23 ar
21 19 20 ar
22 20 21 ar
23 21 22 ar
24 21 27 ar
25 22 23 ar
26 22 25 ar
27 23 24 1
28 25 26 ar
29 26 27 ar
@<TRIPOS>SUBSTRUCTURE
1	SAM301	1	GROUP	1 A	SAM
