@<TRIPOS>MOLECULE
6IFT.A
51 53 1 0 0 
SMALL
USER_CHARGES


@<TRIPOS>ATOM
  1 N       42.4230    11.3160    11.9290 N.4   1 SAM  -0.8530 
  2 H1      42.8137    10.6957    11.2342 H     1 SAM   0.4500 
  3 H2      41.7305    10.8201    12.4718 H     1 SAM   0.4500 
  4 H3      43.1580    11.6434    12.5394 H     1 SAM   0.4500 
  5 CA      41.8040    12.4430    11.2740 C.3   1 SAM   0.3170 
  6 HA      41.3745    13.1275    12.0055 H     1 SAM   0.0800 
  7 C       40.7530    11.9120    10.4080 C.2   1 SAM   0.9060 
  8 O       40.8130    10.7520     9.9850 O.co2 1 SAM  -0.9000 
  9 CB      42.8390    13.2690    10.4860 C.3   1 SAM  -0.1600 
 10 HB1     43.5479    13.6814    11.2039 H     1 SAM   0.0800 
 11 HB2     42.3063    14.0823     9.9933 H     1 SAM   0.0800 
 12 CG      43.6430    12.5250     9.4150 C.3   1 SAM  -0.1525 
 13 HG1     42.9352    12.1615     8.6701 H     1 SAM   0.0800 
 14 HG2     44.1266    11.6775     9.9007 H     1 SAM   0.0800 
 15 SD      44.8650    13.4050     8.5780 S.3   1 SAM   0.9775 
 16 CE      45.1390    12.2690     7.3590 C.3   1 SAM  -0.2325 
 17 HE1     44.2236    12.1236     6.7855 H     1 SAM   0.0800 
 18 HE2     45.4419    11.3222     7.8061 H     1 SAM   0.0800 
 19 HE3     45.9284    12.6280     6.6986 H     1 SAM   0.0800 
 20 C5'     46.4000    13.4150     9.2640 C.3   1 SAM  -0.1525 
 21 H5'1    47.0598    13.9173     8.5566 H     1 SAM   0.0800 
 22 H5'2    46.7062    12.3743     9.3704 H     1 SAM   0.0800 
 23 C4'     46.6150    14.0830    10.6240 C.3   1 SAM   0.2000 
 24 H4'     45.8356    13.5854    11.2011 H     1 SAM   0.0800 
 25 O4'     47.9440    13.8760    11.1670 O.3   1 SAM  -0.5600 
 26 C3'     46.4170    15.5760    10.6800 C.3   1 SAM   0.2000 
 27 H3'     45.9317    15.9864     9.7945 H     1 SAM   0.0800 
 28 O3'     45.6050    15.9120    11.7950 O.3   1 SAM  -0.6800 
 29 H3'     45.5499    16.8695    11.8359 H     1 SAM   0.4000 
 30 C2'     47.8240    16.0920    10.8970 C.3   1 SAM   0.2000 
 31 H2'     48.3201    16.2299     9.9363 H     1 SAM   0.0800 
 32 O2'     47.8920    17.3690    11.4980 O.3   1 SAM  -0.6800 
 33 H2'     48.8198    17.6000    11.5847 H     1 SAM   0.4000 
 34 C1'     48.4790    15.0570    11.7740 C.3   1 SAM   0.5691 
 35 H1'     48.3010    15.2744    12.8272 H     1 SAM   0.0800 
 36 OXT     39.9080    12.7280    10.1330 O.co2 1 SAM  -0.9000 
 37 N1      52.7390    13.4750    14.2380 N.2   1 SAM  -0.6610 
 38 C2      51.4440    13.5500    14.6880 C.2   1 SAM   0.6010 
 39 H2      51.2218    13.2237    15.6933 H     1 SAM   0.0600 
 40 N3      50.4590    14.0080    13.9330 N.2   1 SAM  -0.6610 
 41 C4      50.7240    14.4300    12.6400 C.2   1 SAM   0.5000 
 42 C5      52.0610    14.4000    12.0870 C.2   1 SAM   0.4500 
 43 C6      53.0630    13.8710    13.0040 C.2   1 SAM   0.6110 
 44 N6      54.3210    13.7850    12.5770 N.2   1 SAM  -0.2000 
 45 H62     55.0383    13.4227    13.1888 H     1 SAM   0.4000 
 46 H61     54.5581    14.0821    11.6413 H     1 SAM   0.4000 
 47 N7      52.0340    14.8520    10.7910 N.2   1 SAM  -0.6960 
 48 C8      50.7430    15.1700    10.5600 C.3   1 SAM   0.4551 
 49 H81     50.3750    14.5751     9.7241 H     1 SAM   0.0800 
 50 H82     50.6776    16.2287    10.3091 H     1 SAM   0.0800 
 51 N9      49.9730    14.9260    11.6480 N.pl3 1 SAM  -0.7882 
@<TRIPOS>BOND
  1   1   2  1   
  2   1   3  1   
  3   1   4  1   
  4   1   5  1   
  5   5   6  1   
  6   5   7  1   
  7   5   9  1   
  8   7   8  ar  
  9   7  36  ar  
 10   9  10  1   
 11   9  11  1   
 12   9  12  1   
 13  12  13  1   
 14  12  14  1   
 15  12  15  1   
 16  15  16  1   
 17  15  20  1   
 18  16  17  1   
 19  16  18  1   
 20  16  19  1   
 21  20  21  1   
 22  20  22  1   
 23  20  23  1   
 24  23  24  1   
 25  23  25  1   
 26  23  26  1   
 27  25  34  1   
 28  26  27  1   
 29  26  28  1   
 30  26  30  1   
 31  28  29  1   
 32  30  31  1   
 33  30  32  1   
 34  30  34  1   
 35  32  33  1   
 36  34  35  1   
 37  34  51  1   
 38  37  38  2   
 39  37  43  1   
 40  38  39  1   
 41  38  40  1   
 42  40  41  2   
 43  41  42  1   
 44  41  51  1   
 45  42  43  1   
 46  42  47  2   
 47  43  44  2   
 48  44  45  1   
 49  44  46  1   
 50  47  48  1   
 51  48  49  1   
 52  48  50  1   
 53  48  51  1   
@<TRIPOS>SUBSTRUCTURE
  1 SAM  25 GROUP 4 A **** 0

# MOE 2022.02 (io_trps.svl 2020.11)
