# created with PyMOL 2.5.0
@<TRIPOS>MOLECULE
5JJ0
27 29 1                 
SMALL
USER_CHARGES
@<TRIPOS>ATOM
1	   N	99.557	-2.903	61.528	N.3	1	SAM1205	0.000	
2	  CA	99.162	-2.142	62.722	C.3	1	SAM1205	0.000	
3	   C	99.960	-2.600	63.891	C.2	1	SAM1205	0.000	
4	   O	99.597	-2.076	64.983	O.co2	1	SAM1205	0.000	
5	  CB	97.622	-2.223	62.948	C.3	1	SAM1205	0.000	
6	  CG	96.846	-1.243	62.067	C.3	1	SAM1205	0.000	
7	  SD	96.963	0.415	62.471	S.3	1	SAM1205	0.000	
8	  CE	95.405	0.955	62.638	C.3	1	SAM1205	0.000	
9	 C5'	97.332	1.239	61.037	C.3	1	SAM1205	0.000	
10	 C4'	98.803	1.187	60.691	C.3	1	SAM1205	0.000	
11	 O4'	99.222	-0.136	60.265	O.3	1	SAM1205	0.000	
12	 C3'	99.192	2.094	59.506	C.3	1	SAM1205	0.000	
13	 O3'	99.503	3.455	59.857	O.3	1	SAM1205	0.000	
14	 C2'	100.378	1.367	58.964	C.3	1	SAM1205	0.000	
15	 O2'	101.520	1.556	59.779	O.3	1	SAM1205	0.000	
16	 C1'	99.997	-0.102	59.045	C.3	1	SAM1205	0.000	
17	 OXT	100.942	-3.402	63.758	O.co2	1	SAM1205	0.000	
18	  N1	100.075	-1.309	54.042	N.2	1	SAM1205	0.000	
19	  C2	101.060	-0.947	54.861	C.2	1	SAM1205	0.000	
20	  N3	100.863	-0.660	56.167	N.2	1	SAM1205	0.000	
21	  C4	99.639	-0.730	56.698	C.2	1	SAM1205	0.000	
22	  C5	98.537	-1.099	55.892	C.2	1	SAM1205	0.000	
23	  C6	98.798	-1.424	54.482	C.2	1	SAM1205	0.000	
24	  N6	97.700	-1.763	53.780	N.pl3	1	SAM1205	0.000	
25	  N7	97.421	-1.130	56.607	N.2	1	SAM1205	0.000	
26	  C8	97.848	-0.774	57.860	C.2	1	SAM1205	0.000	
27	  N9	99.156	-0.511	57.890	N.2	1	SAM1205	0.000	
@<TRIPOS>BOND
1 1 2 1
2 2 3 1
3 2 5 1
4 3 4 ar
5 3 17 ar
6 5 6 1
7 6 7 1
8 7 8 1
9 7 9 1
10 9 10 1
11 10 11 1
12 10 12 1
13 11 16 1
14 12 13 1
15 12 14 1
16 14 15 1
17 14 16 1
18 16 27 1
19 18 19 ar
20 18 23 ar
21 19 20 ar
22 20 21 ar
23 21 22 ar
24 21 27 ar
25 22 23 ar
26 22 25 ar
27 23 24 1
28 25 26 ar
29 26 27 ar
@<TRIPOS>SUBSTRUCTURE
1	SAM1205	1	GROUP	1 A	SAM
