# created with PyMOL 2.4.0
@<TRIPOS>MOLECULE
temp
50 52 1                 
SMALL
USER_CHARGES
@<TRIPOS>ATOM
1	   N	55.735	-2.543	98.716	N.4	1	SAM1	0.000	
2	  CA	56.215	-1.607	97.688	C.3	1	SAM1	0.000	
3	   C	55.378	-1.768	96.447	C.2	1	SAM1	0.000	
4	   O	55.747	-1.087	95.452	O.co2	1	SAM1	0.000	
5	  CB	57.728	-1.788	97.351	C.3	1	SAM1	0.000	
6	  CG	58.683	-1.034	98.241	C.3	1	SAM1	0.000	
7	  SD	58.798	0.653	98.128	S.3	1	SAM1	0.000	
8	  CE	60.403	1.044	98.024	C.3	1	SAM1	0.000	
9	 C5'	58.517	1.320	99.664	C.3	1	SAM1	0.000	
10	 C4'	57.024	1.346	100.045	C.3	1	SAM1	0.000	
11	 O4'	56.489	0.028	100.318	O.3	1	SAM1	0.000	
12	 C3'	56.657	2.156	101.302	C.3	1	SAM1	0.000	
13	 O3'	56.377	3.539	101.072	O.3	1	SAM1	0.000	
14	 C2'	55.342	1.526	101.696	C.3	1	SAM1	0.000	
15	 O2'	54.247	2.033	100.896	O.3	1	SAM1	0.000	
16	 C1'	55.604	0.053	101.437	C.3	1	SAM1	0.000	
17	 OXT	54.350	-2.509	96.479	O.co2	1	SAM1	0.000	
18	  N1	55.536	-1.446	106.441	N.2	1	SAM1	0.000	
19	  C2	54.574	-0.818	105.721	C.2	1	SAM1	0.000	
20	  N3	54.719	-0.491	104.417	N.2	1	SAM1	0.000	
21	  C4	55.904	-0.790	103.793	C.2	1	SAM1	0.000	
22	  C5	56.995	-1.413	104.517	C.2	1	SAM1	0.000	
23	  C6	56.778	-1.760	105.920	C.2	1	SAM1	0.000	
24	  N6	57.765	-2.345	106.583	N.pl3	1	SAM1	0.000	
25	  N7	58.019	-1.597	103.692	N.2	1	SAM1	0.000	
26	  C8	57.623	-1.044	102.511	C.2	1	SAM1	0.000	
27	  N9	56.358	-0.563	102.580	N.2	1	SAM1	0.000	
28	  HA	56.113	-0.599	98.089	 H	1	SAM1	0.000	
29	 HB1	57.887	-1.452	96.326	 H	1	SAM1	0.000	
30	 HB2	57.965	-2.849	97.426	 H	1	SAM1	0.000	
31	 HG1	59.678	-1.431	98.041	 H	1	SAM1	0.000	
32	 HG2	58.401	-1.262	99.269	 H	1	SAM1	0.000	
33	 HE1	60.802	0.692	97.072	 H	1	SAM1	0.000	
34	 HE2	60.946	0.571	98.842	 H	1	SAM1	0.000	
35	 HE3	60.518	2.126	98.089	 H	1	SAM1	0.000	
36	  H1	55.817	-3.490	98.374	 H	1	SAM1	0.000	
37	  H2	54.768	-2.344	98.927	 H	1	SAM1	0.000	
38	  H2	53.646	-0.567	106.213	 H	1	SAM1	0.000	
39	  H3	56.291	-2.438	99.553	 H	1	SAM1	0.000	
40	  H8	58.242	-0.995	101.627	 H	1	SAM1	0.000	
41	 H1'	54.666	-0.483	101.291	 H	1	SAM1	0.000	
42	 H2'	55.043	1.738	102.723	 H	1	SAM1	0.000	
43	 H2'	54.168	2.973	101.074	 H	1	SAM1	0.000	
44	 H3'	57.481	2.132	102.015	 H	1	SAM1	0.000	
45	 H3'	56.136	3.930	101.914	 H	1	SAM1	0.000	
46	 H4'	56.601	1.816	99.157	 H	1	SAM1	0.000	
47	 H61	58.640	-2.540	106.118	 H	1	SAM1	0.000	
48	 H62	57.642	-2.596	107.554	 H	1	SAM1	0.000	
49	H5'1	58.896	2.342	99.674	 H	1	SAM1	0.000	
50	H5'2	59.054	0.727	100.404	 H	1	SAM1	0.000	
@<TRIPOS>BOND
1 1 2 1
2 1 36 1
3 1 37 1
4 1 39 1
5 2 3 1
6 2 5 1
7 2 28 1
8 3 4 ar
9 3 17 ar
10 5 6 1
11 5 29 1
12 5 30 1
13 6 7 1
14 6 31 1
15 6 32 1
16 7 8 1
17 7 9 1
18 8 33 1
19 8 34 1
20 8 35 1
21 9 10 1
22 9 49 1
23 9 50 1
24 10 11 1
25 10 12 1
26 10 46 1
27 11 16 1
28 12 13 1
29 12 14 1
30 12 44 1
31 13 45 1
32 14 15 1
33 14 16 1
34 14 42 1
35 15 43 1
36 16 27 1
37 16 41 1
38 18 19 ar
39 18 23 ar
40 19 20 ar
41 19 38 1
42 20 21 ar
43 21 22 ar
44 21 27 ar
45 22 23 ar
46 22 25 ar
47 23 24 1
48 24 47 1
49 24 48 1
50 25 26 ar
51 26 27 ar
52 26 40 1
@<TRIPOS>SUBSTRUCTURE
1	SAM1	1	GROUP	1 B	SAM
