@<TRIPOS>MOLECULE
5JJ0.A
51 53 1 0 0 
SMALL
USER_CHARGES


@<TRIPOS>ATOM
  1 N       99.5570    -2.9030    61.5280 N.4   1 SAM  -0.8530 
  2 H1      99.3495    -3.8814    61.6685 H     1 SAM   0.4500 
  3 H2     100.5477    -2.7885    61.3683 H     1 SAM   0.4500 
  4 H3      99.0452    -2.5619    60.7268 H     1 SAM   0.4500 
  5 CA      99.1620    -2.1420    62.7220 C.3   1 SAM   0.3170 
  6 HA      99.3825    -1.0841    62.5791 H     1 SAM   0.0800 
  7 C       99.9600    -2.6000    63.8910 C.2   1 SAM   0.9060 
  8 O       99.5970    -2.0760    64.9830 O.co2 1 SAM  -0.9000 
  9 CB      97.6220    -2.2230    62.9480 C.3   1 SAM  -0.1600 
 10 HB1     97.4101    -1.9963    63.9929 H     1 SAM   0.0800 
 11 HB2     97.2887    -3.2357    62.7211 H     1 SAM   0.0800 
 12 CG      96.8460    -1.2430    62.0670 C.3   1 SAM  -0.1525 
 13 HG1     95.7929    -1.5203    62.1134 H     1 SAM   0.0800 
 14 HG2     97.2078    -1.3600    61.0455 H     1 SAM   0.0800 
 15 SD      96.9630     0.4150    62.4710 S.3   1 SAM   0.9775 
 16 CE      95.4050     0.9550    62.6380 C.3   1 SAM  -0.2325 
 17 HE1     94.9659     0.5248    63.5382 H     1 SAM   0.0800 
 18 HE2     94.8207     0.6532    61.7688 H     1 SAM   0.0800 
 19 HE3     95.4037     2.0421    62.7169 H     1 SAM   0.0800 
 20 C5'     97.3320     1.2390    61.0370 C.3   1 SAM  -0.1525 
 21 H5'1    97.0378     2.2825    61.1498 H     1 SAM   0.0800 
 22 H5'2    96.7666     0.7882    60.2214 H     1 SAM   0.0800 
 23 C4'     98.8030     1.1870    60.6910 C.3   1 SAM   0.2000 
 24 H4'     99.2826     1.5076    61.6158 H     1 SAM   0.0800 
 25 O4'     99.2220    -0.1360    60.2650 O.3   1 SAM  -0.5600 
 26 C3'     99.1920     2.0940    59.5060 C.3   1 SAM   0.2000 
 27 H3'     98.3709     2.2344    58.8030 H     1 SAM   0.0800 
 28 O3'     99.5030     3.4550    59.8570 O.3   1 SAM  -0.6800 
 29 H3'     99.7525     3.9129    59.0510 H     1 SAM   0.4000 
 30 C2'    100.3780     1.3670    58.9640 C.3   1 SAM   0.2000 
 31 H2'    100.6192     1.7172    57.9604 H     1 SAM   0.0800 
 32 O2'    101.5200     1.5560    59.7790 O.3   1 SAM  -0.6800 
 33 H2'    101.7239     2.4941    59.7800 H     1 SAM   0.4000 
 34 C1'     99.9970    -0.1020    59.0450 C.3   1 SAM   0.5691 
 35 H1'    100.8545    -0.7748    59.0315 H     1 SAM   0.0800 
 36 OXT    100.9420    -3.4020    63.7580 O.co2 1 SAM  -0.9000 
 37 N1     100.0750    -1.3090    54.0420 N.2   1 SAM  -0.6610 
 38 C2     101.0600    -0.9470    54.8610 C.2   1 SAM   0.6010 
 39 H2     102.0621    -0.8796    54.4639 H     1 SAM   0.0600 
 40 N3     100.8630    -0.6600    56.1670 N.2   1 SAM  -0.6610 
 41 C4      99.6390    -0.7300    56.6980 C.2   1 SAM   0.5000 
 42 C5      98.5370    -1.0990    55.8920 C.2   1 SAM   0.4500 
 43 C6      98.7980    -1.4240    54.4820 C.2   1 SAM   0.6110 
 44 N6      97.7000    -1.7630    53.7800 N.2   1 SAM  -0.2000 
 45 H62     97.7799    -2.0030    52.8022 H     1 SAM   0.4000 
 46 H61     96.7965    -1.7773    54.2313 H     1 SAM   0.4000 
 47 N7      97.4210    -1.1300    56.6070 N.2   1 SAM  -0.6960 
 48 C8      97.8480    -0.7740    57.8600 C.3   1 SAM   0.4551 
 49 H81     97.6385    -1.5928    58.5483 H     1 SAM   0.0800 
 50 H82     97.3035     0.1155    58.1771 H     1 SAM   0.0800 
 51 N9      99.1560    -0.5110    57.8900 N.pl3 1 SAM  -0.7882 
@<TRIPOS>BOND
  1   1   2  1   
  2   1   3  1   
  3   1   4  1   
  4   1   5  1   
  5   5   6  1   
  6   5   7  1   
  7   5   9  1   
  8   7   8  ar  
  9   7  36  ar  
 10   9  10  1   
 11   9  11  1   
 12   9  12  1   
 13  12  13  1   
 14  12  14  1   
 15  12  15  1   
 16  15  16  1   
 17  15  20  1   
 18  16  17  1   
 19  16  18  1   
 20  16  19  1   
 21  20  21  1   
 22  20  22  1   
 23  20  23  1   
 24  23  24  1   
 25  23  25  1   
 26  23  26  1   
 27  25  34  1   
 28  26  27  1   
 29  26  28  1   
 30  26  30  1   
 31  28  29  1   
 32  30  31  1   
 33  30  32  1   
 34  30  34  1   
 35  32  33  1   
 36  34  35  1   
 37  34  51  1   
 38  37  38  2   
 39  37  43  1   
 40  38  39  1   
 41  38  40  1   
 42  40  41  2   
 43  41  42  1   
 44  41  51  1   
 45  42  43  1   
 46  42  47  2   
 47  43  44  2   
 48  44  45  1   
 49  44  46  1   
 50  47  48  1   
 51  48  49  1   
 52  48  50  1   
 53  48  51  1   
@<TRIPOS>SUBSTRUCTURE
  1 SAM  25 GROUP 4 A **** 0

# MOE 2022.02 (io_trps.svl 2020.11)
