# created with PyMOL 2.5.0
@<TRIPOS>MOLECULE
5JJ0
27 29 1                 
SMALL
USER_CHARGES
@<TRIPOS>ATOM
1	   N	55.735	-2.543	98.716	N.3	1	SAM1205	0.000	
2	  CA	56.215	-1.607	97.688	C.3	1	SAM1205	0.000	
3	   C	55.378	-1.768	96.447	C.2	1	SAM1205	0.000	
4	   O	55.747	-1.087	95.452	O.co2	1	SAM1205	0.000	
5	  CB	57.728	-1.788	97.351	C.3	1	SAM1205	0.000	
6	  CG	58.683	-1.034	98.241	C.3	1	SAM1205	0.000	
7	  SD	58.798	0.653	98.128	S.3	1	SAM1205	0.000	
8	  CE	60.403	1.044	98.024	C.3	1	SAM1205	0.000	
9	 C5'	58.517	1.320	99.664	C.3	1	SAM1205	0.000	
10	 C4'	57.024	1.346	100.045	C.3	1	SAM1205	0.000	
11	 O4'	56.489	0.028	100.318	O.3	1	SAM1205	0.000	
12	 C3'	56.657	2.156	101.302	C.3	1	SAM1205	0.000	
13	 O3'	56.377	3.539	101.072	O.3	1	SAM1205	0.000	
14	 C2'	55.342	1.526	101.696	C.3	1	SAM1205	0.000	
15	 O2'	54.247	2.033	100.896	O.3	1	SAM1205	0.000	
16	 C1'	55.604	0.053	101.437	C.3	1	SAM1205	0.000	
17	 OXT	54.350	-2.509	96.479	O.co2	1	SAM1205	0.000	
18	  N1	55.536	-1.446	106.441	N.2	1	SAM1205	0.000	
19	  C2	54.574	-0.818	105.721	C.2	1	SAM1205	0.000	
20	  N3	54.719	-0.491	104.417	N.2	1	SAM1205	0.000	
21	  C4	55.904	-0.790	103.793	C.2	1	SAM1205	0.000	
22	  C5	56.995	-1.413	104.517	C.2	1	SAM1205	0.000	
23	  C6	56.778	-1.760	105.920	C.2	1	SAM1205	0.000	
24	  N6	57.765	-2.345	106.583	N.pl3	1	SAM1205	0.000	
25	  N7	58.019	-1.597	103.692	N.2	1	SAM1205	0.000	
26	  C8	57.623	-1.044	102.511	C.2	1	SAM1205	0.000	
27	  N9	56.358	-0.563	102.580	N.2	1	SAM1205	0.000	
@<TRIPOS>BOND
1 1 2 1
2 2 3 1
3 2 5 1
4 3 4 ar
5 3 17 ar
6 5 6 1
7 6 7 1
8 7 8 1
9 7 9 1
10 9 10 1
11 10 11 1
12 10 12 1
13 11 16 1
14 12 13 1
15 12 14 1
16 14 15 1
17 14 16 1
18 16 27 1
19 18 19 ar
20 18 23 ar
21 19 20 ar
22 20 21 ar
23 21 22 ar
24 21 27 ar
25 22 23 ar
26 22 25 ar
27 23 24 1
28 25 26 ar
29 26 27 ar
@<TRIPOS>SUBSTRUCTURE
1	SAM1205	1	GROUP	1 B	SAM
