@<TRIPOS>MOLECULE
5JJ0.B
51 53 1 0 0 
SMALL
USER_CHARGES


@<TRIPOS>ATOM
  1 N       55.7350    -2.5430    98.7160 N.4   1 SAM  -0.8530 
  2 H1      55.8171    -3.4898    98.3740 H     1 SAM   0.4500 
  3 H2      54.7676    -2.3440    98.9272 H     1 SAM   0.4500 
  4 H3      56.2907    -2.4380    99.5528 H     1 SAM   0.4500 
  5 CA      56.2150    -1.6070    97.6880 C.3   1 SAM   0.3170 
  6 HA      56.1127    -0.5985    98.0886 H     1 SAM   0.0800 
  7 C       55.3780    -1.7680    96.4470 C.2   1 SAM   0.9060 
  8 O       55.7470    -1.0870    95.4520 O.co2 1 SAM  -0.9000 
  9 CB      57.7280    -1.7880    97.3510 C.3   1 SAM  -0.1600 
 10 HB1     57.8869    -1.4522    96.3263 H     1 SAM   0.0800 
 11 HB2     57.9648    -2.8493    97.4263 H     1 SAM   0.0800 
 12 CG      58.6830    -1.0340    98.2410 C.3   1 SAM  -0.1525 
 13 HG1     59.6784    -1.4308    98.0413 H     1 SAM   0.0800 
 14 HG2     58.4006    -1.2615    99.2689 H     1 SAM   0.0800 
 15 SD      58.7980     0.6530    98.1280 S.3   1 SAM   0.9775 
 16 CE      60.4030     1.0440    98.0240 C.3   1 SAM  -0.2325 
 17 HE1     60.8016     0.6925    97.0723 H     1 SAM   0.0800 
 18 HE2     60.9460     0.5710    98.8423 H     1 SAM   0.0800 
 19 HE3     60.5183     2.1259    98.0889 H     1 SAM   0.0800 
 20 C5'     58.5170     1.3200    99.6640 C.3   1 SAM  -0.1525 
 21 H5'1    58.8958     2.3420    99.6735 H     1 SAM   0.0800 
 22 H5'2    59.0541     0.7266   100.4040 H     1 SAM   0.0800 
 23 C4'     57.0240     1.3460   100.0450 C.3   1 SAM   0.2000 
 24 H4'     56.6008     1.8157    99.1571 H     1 SAM   0.0800 
 25 O4'     56.4890     0.0280   100.3180 O.3   1 SAM  -0.5600 
 26 C3'     56.6570     2.1560   101.3020 C.3   1 SAM   0.2000 
 27 H3'     57.4811     2.1319   102.0150 H     1 SAM   0.0800 
 28 O3'     56.3770     3.5390   101.0720 O.3   1 SAM  -0.6800 
 29 H3'     55.6518     3.5880   100.4449 H     1 SAM   0.4000 
 30 C2'     55.3420     1.5260   101.6960 C.3   1 SAM   0.2000 
 31 H2'     55.0428     1.7376   102.7225 H     1 SAM   0.0800 
 32 O2'     54.2470     2.0330   100.8960 O.3   1 SAM  -0.6800 
 33 H2'     53.4533     1.5605   101.1576 H     1 SAM   0.4000 
 34 C1'     55.6040     0.0530   101.4370 C.3   1 SAM   0.5691 
 35 H1'     54.6659    -0.4826   101.2912 H     1 SAM   0.0800 
 36 OXT     54.3500    -2.5090    96.4790 O.co2 1 SAM  -0.9000 
 37 N1      55.5360    -1.4460   106.4410 N.2   1 SAM  -0.6610 
 38 C2      54.5740    -0.8180   105.7210 C.2   1 SAM   0.6010 
 39 H2      53.6462    -0.5665   106.2132 H     1 SAM   0.0600 
 40 N3      54.7190    -0.4910   104.4170 N.2   1 SAM  -0.6610 
 41 C4      55.9040    -0.7900   103.7930 C.2   1 SAM   0.5000 
 42 C5      56.9950    -1.4130   104.5170 C.2   1 SAM   0.4500 
 43 C6      56.7780    -1.7600   105.9200 C.2   1 SAM   0.6110 
 44 N6      57.7650    -2.3450   106.5830 N.2   1 SAM  -0.2000 
 45 H62     57.6424    -2.5957   107.5537 H     1 SAM   0.4000 
 46 H61     58.6399    -2.5402   106.1177 H     1 SAM   0.4000 
 47 N7      58.0190    -1.5970   103.6920 N.2   1 SAM  -0.6960 
 48 C8      57.6230    -1.0440   102.5110 C.3   1 SAM   0.4551 
 49 H81     57.6692    -1.8050   101.7320 H     1 SAM   0.0800 
 50 H82     58.2984    -0.2260   102.2603 H     1 SAM   0.0800 
 51 N9      56.3580    -0.5630   102.5800 N.pl3 1 SAM  -0.7882 
@<TRIPOS>BOND
  1   1   2  1   
  2   1   3  1   
  3   1   4  1   
  4   1   5  1   
  5   5   6  1   
  6   5   7  1   
  7   5   9  1   
  8   7   8  ar  
  9   7  36  ar  
 10   9  10  1   
 11   9  11  1   
 12   9  12  1   
 13  12  13  1   
 14  12  14  1   
 15  12  15  1   
 16  15  16  1   
 17  15  20  1   
 18  16  17  1   
 19  16  18  1   
 20  16  19  1   
 21  20  21  1   
 22  20  22  1   
 23  20  23  1   
 24  23  24  1   
 25  23  25  1   
 26  23  26  1   
 27  25  34  1   
 28  26  27  1   
 29  26  28  1   
 30  26  30  1   
 31  28  29  1   
 32  30  31  1   
 33  30  32  1   
 34  30  34  1   
 35  32  33  1   
 36  34  35  1   
 37  34  51  1   
 38  37  38  2   
 39  37  43  1   
 40  38  39  1   
 41  38  40  1   
 42  40  41  2   
 43  41  42  1   
 44  41  51  1   
 45  42  43  1   
 46  42  47  2   
 47  43  44  2   
 48  44  45  1   
 49  44  46  1   
 50  47  48  1   
 51  48  49  1   
 52  48  50  1   
 53  48  51  1   
@<TRIPOS>SUBSTRUCTURE
  1 SAM  25 GROUP 4 B **** 0

# MOE 2022.02 (io_trps.svl 2020.11)
