# created with PyMOL 2.4.0
@<TRIPOS>MOLECULE
temp
50 52 1                 
SMALL
USER_CHARGES
@<TRIPOS>ATOM
1	   N	99.557	-2.903	61.528	N.4	1	SAM1	0.000	
2	  CA	99.162	-2.142	62.722	C.3	1	SAM1	0.000	
3	   C	99.960	-2.600	63.891	C.2	1	SAM1	0.000	
4	   O	99.597	-2.076	64.983	O.co2	1	SAM1	0.000	
5	  CB	97.622	-2.223	62.948	C.3	1	SAM1	0.000	
6	  CG	96.846	-1.243	62.067	C.3	1	SAM1	0.000	
7	  SD	96.963	0.415	62.471	S.3	1	SAM1	0.000	
8	  CE	95.405	0.955	62.638	C.3	1	SAM1	0.000	
9	 C5'	97.332	1.239	61.037	C.3	1	SAM1	0.000	
10	 C4'	98.803	1.187	60.691	C.3	1	SAM1	0.000	
11	 O4'	99.222	-0.136	60.265	O.3	1	SAM1	0.000	
12	 C3'	99.192	2.094	59.506	C.3	1	SAM1	0.000	
13	 O3'	99.503	3.455	59.857	O.3	1	SAM1	0.000	
14	 C2'	100.378	1.367	58.964	C.3	1	SAM1	0.000	
15	 O2'	101.520	1.556	59.779	O.3	1	SAM1	0.000	
16	 C1'	99.997	-0.102	59.045	C.3	1	SAM1	0.000	
17	 OXT	100.942	-3.402	63.758	O.co2	1	SAM1	0.000	
18	  N1	100.075	-1.309	54.042	N.2	1	SAM1	0.000	
19	  C2	101.060	-0.947	54.861	C.2	1	SAM1	0.000	
20	  N3	100.863	-0.660	56.167	N.2	1	SAM1	0.000	
21	  C4	99.639	-0.730	56.698	C.2	1	SAM1	0.000	
22	  C5	98.537	-1.099	55.892	C.2	1	SAM1	0.000	
23	  C6	98.798	-1.424	54.482	C.2	1	SAM1	0.000	
24	  N6	97.700	-1.763	53.780	N.pl3	1	SAM1	0.000	
25	  N7	97.421	-1.130	56.607	N.2	1	SAM1	0.000	
26	  C8	97.848	-0.774	57.860	C.2	1	SAM1	0.000	
27	  N9	99.156	-0.511	57.890	N.2	1	SAM1	0.000	
28	  HA	99.382	-1.084	62.579	 H	1	SAM1	0.000	
29	 HB1	97.410	-1.996	63.993	 H	1	SAM1	0.000	
30	 HB2	97.289	-3.236	62.721	 H	1	SAM1	0.000	
31	 HG1	95.793	-1.520	62.113	 H	1	SAM1	0.000	
32	 HG2	97.208	-1.360	61.046	 H	1	SAM1	0.000	
33	 HE1	94.966	0.525	63.538	 H	1	SAM1	0.000	
34	 HE2	94.821	0.653	61.769	 H	1	SAM1	0.000	
35	 HE3	95.404	2.042	62.717	 H	1	SAM1	0.000	
36	  H1	99.350	-3.881	61.668	 H	1	SAM1	0.000	
37	  H2	100.548	-2.789	61.368	 H	1	SAM1	0.000	
38	  H2	102.062	-0.880	54.464	 H	1	SAM1	0.000	
39	  H3	99.045	-2.562	60.727	 H	1	SAM1	0.000	
40	  H8	97.201	-0.713	58.723	 H	1	SAM1	0.000	
41	 H1'	100.854	-0.775	59.032	 H	1	SAM1	0.000	
42	 H2'	100.619	1.717	57.960	 H	1	SAM1	0.000	
43	 H2'	101.724	2.494	59.780	 H	1	SAM1	0.000	
44	 H3'	98.371	2.234	58.803	 H	1	SAM1	0.000	
45	 H3'	99.753	3.913	59.051	 H	1	SAM1	0.000	
46	 H4'	99.283	1.508	61.616	 H	1	SAM1	0.000	
47	 H61	96.797	-1.777	54.231	 H	1	SAM1	0.000	
48	 H62	97.780	-2.003	52.802	 H	1	SAM1	0.000	
49	H5'1	97.038	2.283	61.150	 H	1	SAM1	0.000	
50	H5'2	96.767	0.788	60.221	 H	1	SAM1	0.000	
@<TRIPOS>BOND
1 1 2 1
2 1 36 1
3 1 37 1
4 1 39 1
5 2 3 1
6 2 5 1
7 2 28 1
8 3 4 ar
9 3 17 ar
10 5 6 1
11 5 29 1
12 5 30 1
13 6 7 1
14 6 31 1
15 6 32 1
16 7 8 1
17 7 9 1
18 8 33 1
19 8 34 1
20 8 35 1
21 9 10 1
22 9 49 1
23 9 50 1
24 10 11 1
25 10 12 1
26 10 46 1
27 11 16 1
28 12 13 1
29 12 14 1
30 12 44 1
31 13 45 1
32 14 15 1
33 14 16 1
34 14 42 1
35 15 43 1
36 16 27 1
37 16 41 1
38 18 19 ar
39 18 23 ar
40 19 20 ar
41 19 38 1
42 20 21 ar
43 21 22 ar
44 21 27 ar
45 22 23 ar
46 22 25 ar
47 23 24 1
48 24 47 1
49 24 48 1
50 25 26 ar
51 26 27 ar
52 26 40 1
@<TRIPOS>SUBSTRUCTURE
1	SAM1	1	GROUP	1 A	SAM
