# created with PyMOL 2.5.0
@<TRIPOS>MOLECULE
5E9Q
25 26 1                 
SMALL
USER_CHARGES
@<TRIPOS>ATOM
1	   N	26.062	50.845	-6.841	N.pl3	1	5KY302	0.000	
2	   C	25.668	51.718	-1.962	C.3	1	5KY302	0.000	
3	   O	29.944	52.350	-6.862	O.co2	1	5KY302	0.000	
4	  C1	26.454	51.779	-3.251	C.2	1	5KY302	0.000	
5	  N1	24.544	50.356	-8.469	N.pl3	1	5KY302	0.000	
6	  O1	28.404	51.165	-7.910	O.co2	1	5KY302	0.000	
7	  C2	27.725	52.339	-3.289	C.2	1	5KY302	0.000	
8	  N2	24.233	48.703	-10.686	N.pl3	1	5KY302	0.000	
9	  O2	23.808	51.074	-6.422	O.2	1	5KY302	0.000	
10	  C3	28.470	52.362	-4.456	C.2	1	5KY302	0.000	
11	  C4	27.955	51.833	-5.643	C.2	1	5KY302	0.000	
12	  C5	28.841	51.803	-6.867	C.2	1	5KY302	0.000	
13	  C6	26.645	51.296	-5.632	C.2	1	5KY302	0.000	
14	  C7	24.733	50.781	-7.178	C.2	1	5KY302	0.000	
15	  C8	23.317	50.354	-9.175	C.2	1	5KY302	0.000	
16	  C9	22.244	51.156	-8.782	C.2	1	5KY302	0.000	
17	 C10	21.051	51.107	-9.483	C.2	1	5KY302	0.000	
18	 C11	20.901	50.278	-10.585	C.2	1	5KY302	0.000	
19	 C12	19.576	50.173	-11.277	C.3	1	5KY302	0.000	
20	 C13	21.974	49.493	-11.004	C.2	1	5KY302	0.000	
21	 C14	23.189	49.518	-10.301	C.2	1	5KY302	0.000	
22	 C15	25.930	51.264	-4.430	C.2	1	5KY302	0.000	
23	   F	19.003	51.341	-11.443	 F	1	5KY302	0.000	
24	  F1	19.659	49.582	-12.468	 F	1	5KY302	0.000	
25	  F2	18.660	49.514	-10.575	 F	1	5KY302	0.000	
@<TRIPOS>BOND
1 1 13 1
2 1 14 1
3 2 4 1
4 3 12 ar
5 4 7 ar
6 4 22 ar
7 5 14 1
8 5 15 1
9 6 12 ar
10 7 10 ar
11 8 21 1
12 9 14 2
13 10 11 ar
14 11 12 1
15 11 13 ar
16 13 22 ar
17 15 16 ar
18 15 21 ar
19 16 17 ar
20 17 18 ar
21 18 19 1
22 18 20 ar
23 19 23 1
24 19 24 1
25 19 25 1
26 20 21 ar
@<TRIPOS>SUBSTRUCTURE
1	5KY302	1	GROUP	1 A	5KY
