@<TRIPOS>MOLECULE
5E9Q.A
38 39 1 0 0 
SMALL
USER_CHARGES


@<TRIPOS>ATOM
  1 N       26.0620    50.8450    -6.8410 N.am  1 Q5KY  -0.5470 
  2 H       26.7095    50.5287    -7.5487 H     1 Q5KY   0.3700 
  3 C       25.6680    51.7180    -1.9620 C.3   1 Q5KY  -0.0965 
  4 H1      26.2499    52.1719    -1.1598 H     1 Q5KY   0.0800 
  5 H2      25.4569    50.6778    -1.7140 H     1 Q5KY   0.0800 
  6 H3      24.7302    52.2603    -2.0823 H     1 Q5KY   0.0800 
  7 O       29.9440    52.3500    -6.8620 O.co2 1 Q5KY  -0.9000 
  8 C1      26.4540    51.7790    -3.2510 C.ar  1 Q5KY  -0.1435 
  9 N1      24.5440    50.3560    -8.4690 N.am  1 Q5KY  -0.5470 
 10 H1      25.3562    50.0125    -8.9615 H     1 Q5KY   0.3700 
 11 O1      28.4040    51.1650    -7.9100 O.co2 1 Q5KY  -0.9000 
 12 C2      27.7250    52.3390    -3.2890 C.ar  1 Q5KY  -0.1500 
 13 H2      28.1411    52.7658    -2.3884 H     1 Q5KY   0.1500 
 14 N2      24.2330    48.7030   -10.6860 N.pl3 1 Q5KY  -0.9000 
 15 H21     24.1255    48.0844   -11.4771 H     1 Q5KY   0.4000 
 16 H22     25.1050    48.7248   -10.1768 H     1 Q5KY   0.4000 
 17 O2      23.8080    51.0740    -6.4220 O.2   1 Q5KY  -0.5700 
 18 C3      28.4700    52.3620    -4.4560 C.ar  1 Q5KY  -0.1500 
 19 H3      29.4600    52.7935    -4.4490 H     1 Q5KY   0.1500 
 20 C4      27.9550    51.8330    -5.6430 C.ar  1 Q5KY  -0.1790 
 21 C5      28.8410    51.8030    -6.8670 C.2   1 Q5KY   0.9790 
 22 C6      26.6450    51.2960    -5.6320 C.ar  1 Q5KY   0.1170 
 23 C7      24.7330    50.7810    -7.1780 C.2   1 Q5KY   0.6900 
 24 C8      23.3170    50.3540    -9.1750 C.ar  1 Q5KY   0.1170 
 25 C9      22.2440    51.1560    -8.7820 C.ar  1 Q5KY  -0.1500 
 26 H9      22.3444    51.8143    -7.9317 H     1 Q5KY   0.1500 
 27 C10     21.0510    51.1070    -9.4830 C.ar  1 Q5KY  -0.1500 
 28 H10     20.2234    51.7245    -9.1665 H     1 Q5KY   0.1500 
 29 C11     20.9010    50.2780   -10.5850 C.ar  1 Q5KY  -0.1435 
 30 C12     19.5760    50.1730   -11.2770 C.3   1 Q5KY   1.1635 
 31 C13     21.9740    49.4930   -11.0040 C.ar  1 Q5KY  -0.1500 
 32 H13     21.8701    48.8620   -11.8743 H     1 Q5KY   0.1500 
 33 C14     23.1890    49.5180   -10.3010 C.ar  1 Q5KY   0.1000 
 34 C15     25.9300    51.2640    -4.4300 C.ar  1 Q5KY  -0.1500 
 35 H15     24.9426    50.8265    -4.4183 H     1 Q5KY   0.1500 
 36 F       19.0030    51.3410   -11.4430 F     1 Q5KY  -0.3400 
 37 F1      19.6590    49.5820   -12.4680 F     1 Q5KY  -0.3400 
 38 F2      18.6600    49.5140   -10.5750 F     1 Q5KY  -0.3400 
@<TRIPOS>BOND
  1   1   2  1   
  2   1  22  1   
  3   1  23  am  
  4   3   4  1   
  5   3   5  1   
  6   3   6  1   
  7   3   8  1   
  8   7  21  ar  
  9   8  12  ar  
 10   8  34  ar  
 11   9  10  1   
 12   9  23  am  
 13   9  24  1   
 14  11  21  ar  
 15  12  13  1   
 16  12  18  ar  
 17  14  15  1   
 18  14  16  1   
 19  14  33  1   
 20  17  23  2   
 21  18  19  1   
 22  18  20  ar  
 23  20  21  1   
 24  20  22  ar  
 25  22  34  ar  
 26  24  25  ar  
 27  24  33  ar  
 28  25  26  1   
 29  25  27  ar  
 30  27  28  1   
 31  27  29  ar  
 32  29  30  1   
 33  29  31  ar  
 34  30  36  1   
 35  30  37  1   
 36  30  38  1   
 37  31  32  1   
 38  31  33  ar  
 39  34  35  1   
@<TRIPOS>SUBSTRUCTURE
  1 Q5KY  23 GROUP 4 A **** 0

# MOE 2022.02 (io_trps.svl 2020.11)
