# created with PyMOL 2.5.0
@<TRIPOS>MOLECULE
5E9Q
27 29 1                 
SMALL
USER_CHARGES
@<TRIPOS>ATOM
1	   N	38.185	43.135	-7.071	N.3	1	SAM301	0.000	
2	  CA	37.253	44.229	-7.459	C.3	1	SAM301	0.000	
3	   C	38.046	45.342	-8.151	C.2	1	SAM301	0.000	
4	   O	39.275	45.192	-8.208	O.co2	1	SAM301	0.000	
5	  CB	36.505	44.725	-6.217	C.3	1	SAM301	0.000	
6	  CG	35.466	43.640	-5.863	C.3	1	SAM301	0.000	
7	  SD	34.283	44.142	-4.641	S.3	1	SAM301	0.000	
8	  CE	35.151	43.904	-3.133	C.3	1	SAM301	0.000	
9	 C5'	33.274	42.646	-4.563	C.3	1	SAM301	0.000	
10	 C4'	32.259	42.602	-5.740	C.3	1	SAM301	0.000	
11	 O4'	31.555	41.347	-5.602	O.3	1	SAM301	0.000	
12	 C3'	31.195	43.700	-5.658	C.3	1	SAM301	0.000	
13	 O3'	31.238	44.461	-6.857	O.3	1	SAM301	0.000	
14	 C2'	29.872	42.921	-5.457	C.3	1	SAM301	0.000	
15	 O2'	28.818	43.467	-6.238	O.3	1	SAM301	0.000	
16	 C1'	30.233	41.554	-6.014	C.3	1	SAM301	0.000	
17	 OXT	37.408	46.313	-8.619	O.co2	1	SAM301	0.000	
18	  N1	27.992	37.067	-7.162	N.2	1	SAM301	0.000	
19	  C2	28.714	37.920	-7.899	C.2	1	SAM301	0.000	
20	  N3	29.261	39.084	-7.537	N.2	1	SAM301	0.000	
21	  C4	29.023	39.344	-6.239	C.2	1	SAM301	0.000	
22	  C5	28.311	38.553	-5.351	C.2	1	SAM301	0.000	
23	  C6	27.747	37.367	-5.864	C.2	1	SAM301	0.000	
24	  N6	26.951	36.555	-5.155	N.pl3	1	SAM301	0.000	
25	  N7	28.290	39.130	-4.089	N.2	1	SAM301	0.000	
26	  C8	28.967	40.241	-4.243	C.2	1	SAM301	0.000	
27	  N9	29.435	40.437	-5.519	N.2	1	SAM301	0.000	
@<TRIPOS>BOND
1 1 2 1
2 2 3 1
3 2 5 1
4 3 4 ar
5 3 17 ar
6 5 6 1
7 6 7 1
8 7 8 1
9 7 9 1
10 9 10 1
11 10 11 1
12 10 12 1
13 11 16 1
14 12 13 1
15 12 14 1
16 14 15 1
17 14 16 1
18 16 27 1
19 18 19 ar
20 18 23 ar
21 19 20 ar
22 20 21 ar
23 21 22 ar
24 21 27 ar
25 22 23 ar
26 22 25 ar
27 23 24 1
28 25 26 ar
29 26 27 ar
@<TRIPOS>SUBSTRUCTURE
1	SAM301	1	GROUP	1 A	SAM
