@<TRIPOS>MOLECULE
5E9Q.A
51 53 1 0 0 
SMALL
USER_CHARGES


@<TRIPOS>ATOM
  1 N       38.1850    43.1350    -7.0710 N.4   1 SAM  -0.8530 
  2 H1      38.8678    43.4905    -6.4172 H     1 SAM   0.4500 
  3 H2      38.6561    42.7865    -7.8936 H     1 SAM   0.4500 
  4 H3      37.6634    42.3858    -6.6389 H     1 SAM   0.4500 
  5 CA      37.2530    44.2290    -7.4590 C.3   1 SAM   0.3170 
  6 HA      36.5051    43.8692    -8.1656 H     1 SAM   0.0800 
  7 C       38.0460    45.3420    -8.1510 C.2   1 SAM   0.9060 
  8 O       39.2750    45.1920    -8.2080 O.co2 1 SAM  -0.9000 
  9 CB      36.5050    44.7250    -6.2170 C.3   1 SAM  -0.1600 
 10 HB1     36.0042    45.6690    -6.4320 H     1 SAM   0.0800 
 11 HB2     37.2009    44.8631    -5.3895 H     1 SAM   0.0800 
 12 CG      35.4660    43.6400    -5.8630 C.3   1 SAM  -0.1525 
 13 HG1     35.9980    42.7666    -5.4860 H     1 SAM   0.0800 
 14 HG2     34.9269    43.3727    -6.7719 H     1 SAM   0.0800 
 15 SD      34.2830    44.1420    -4.6410 S.3   1 SAM   0.9775 
 16 CE      35.1510    43.9040    -3.1330 C.3   1 SAM  -0.2325 
 17 HE1     35.8444    44.7307    -2.9786 H     1 SAM   0.0800 
 18 HE2     35.7065    42.9673    -3.1775 H     1 SAM   0.0800 
 19 HE3     34.4408    43.8663    -2.3070 H     1 SAM   0.0800 
 20 C5'     33.2740    42.6460    -4.5630 C.3   1 SAM  -0.1525 
 21 H5'1    32.7280    42.6321    -3.6197 H     1 SAM   0.0800 
 22 H5'2    33.9244    41.7731    -4.6193 H     1 SAM   0.0800 
 23 C4'     32.2590    42.6020    -5.7400 C.3   1 SAM   0.2000 
 24 H4'     32.8050    42.7287    -6.6749 H     1 SAM   0.0800 
 25 O4'     31.5550    41.3470    -5.6020 O.3   1 SAM  -0.5600 
 26 C3'     31.1950    43.7000    -5.6580 C.3   1 SAM   0.2000 
 27 H3'     31.3309    44.4198    -4.8508 H     1 SAM   0.0800 
 28 O3'     31.2380    44.4610    -6.8570 O.3   1 SAM  -0.6800 
 29 H3'     30.5253    45.1030    -6.8190 H     1 SAM   0.4000 
 30 C2'     29.8720    42.9210    -5.4570 C.3   1 SAM   0.2000 
 31 H2'     29.5260    42.9331    -4.4235 H     1 SAM   0.0800 
 32 O2'     28.8180    43.4670    -6.2380 O.3   1 SAM  -0.6800 
 33 H2'     29.1045    43.4649    -7.1543 H     1 SAM   0.4000 
 34 C1'     30.2330    41.5540    -6.0140 C.3   1 SAM   0.5691 
 35 H1'     30.0610    41.5688    -7.0902 H     1 SAM   0.0800 
 36 OXT     37.4080    46.3130    -8.6190 O.co2 1 SAM  -0.9000 
 37 N1      27.9920    37.0670    -7.1620 N.2   1 SAM  -0.6610 
 38 C2      28.7140    37.9200    -7.8990 C.2   1 SAM   0.6010 
 39 H2      28.8764    37.6275    -8.9259 H     1 SAM   0.0600 
 40 N3      29.2610    39.0840    -7.5370 N.2   1 SAM  -0.6610 
 41 C4      29.0230    39.3440    -6.2390 C.2   1 SAM   0.5000 
 42 C5      28.3110    38.5530    -5.3510 C.2   1 SAM   0.4500 
 43 C6      27.7470    37.3670    -5.8640 C.2   1 SAM   0.6110 
 44 N6      26.9510    36.5550    -5.1550 N.2   1 SAM  -0.2000 
 45 H62     26.5770    35.7181    -5.5790 H     1 SAM   0.4000 
 46 H61     26.7251    36.7799    -4.1966 H     1 SAM   0.4000 
 47 N7      28.2900    39.1300    -4.0890 N.2   1 SAM  -0.6960 
 48 C8      28.9670    40.2410    -4.2430 C.3   1 SAM   0.4551 
 49 H81     29.8198    40.2197    -3.5645 H     1 SAM   0.0800 
 50 H82     28.3174    41.0770    -3.9839 H     1 SAM   0.0800 
 51 N9      29.4350    40.4370    -5.5190 N.pl3 1 SAM  -0.7882 
@<TRIPOS>BOND
  1   1   2  1   
  2   1   3  1   
  3   1   4  1   
  4   1   5  1   
  5   5   6  1   
  6   5   7  1   
  7   5   9  1   
  8   7   8  ar  
  9   7  36  ar  
 10   9  10  1   
 11   9  11  1   
 12   9  12  1   
 13  12  13  1   
 14  12  14  1   
 15  12  15  1   
 16  15  16  1   
 17  15  20  1   
 18  16  17  1   
 19  16  18  1   
 20  16  19  1   
 21  20  21  1   
 22  20  22  1   
 23  20  23  1   
 24  23  24  1   
 25  23  25  1   
 26  23  26  1   
 27  25  34  1   
 28  26  27  1   
 29  26  28  1   
 30  26  30  1   
 31  28  29  1   
 32  30  31  1   
 33  30  32  1   
 34  30  34  1   
 35  32  33  1   
 36  34  35  1   
 37  34  51  1   
 38  37  38  2   
 39  37  43  1   
 40  38  39  1   
 41  38  40  1   
 42  40  41  2   
 43  41  42  1   
 44  41  51  1   
 45  42  43  1   
 46  42  47  2   
 47  43  44  2   
 48  44  45  1   
 49  44  46  1   
 50  47  48  1   
 51  48  49  1   
 52  48  50  1   
 53  48  51  1   
@<TRIPOS>SUBSTRUCTURE
  1 SAM  25 GROUP 4 A **** 0

# MOE 2022.02 (io_trps.svl 2020.11)
