# created with PyMOL 2.4.0
@<TRIPOS>MOLECULE
temp
50 52 1                 
SMALL
USER_CHARGES
@<TRIPOS>ATOM
1	   N	38.185	43.135	-7.071	N.4	1	SAM1	0.000	
2	  CA	37.253	44.229	-7.459	C.3	1	SAM1	0.000	
3	   C	38.046	45.342	-8.151	C.2	1	SAM1	0.000	
4	   O	39.275	45.192	-8.208	O.co2	1	SAM1	0.000	
5	  CB	36.505	44.725	-6.217	C.3	1	SAM1	0.000	
6	  CG	35.466	43.640	-5.863	C.3	1	SAM1	0.000	
7	  SD	34.283	44.142	-4.641	S.3	1	SAM1	0.000	
8	  CE	35.151	43.904	-3.133	C.3	1	SAM1	0.000	
9	 C5'	33.274	42.646	-4.563	C.3	1	SAM1	0.000	
10	 C4'	32.259	42.602	-5.740	C.3	1	SAM1	0.000	
11	 O4'	31.555	41.347	-5.602	O.3	1	SAM1	0.000	
12	 C3'	31.195	43.700	-5.658	C.3	1	SAM1	0.000	
13	 O3'	31.238	44.461	-6.857	O.3	1	SAM1	0.000	
14	 C2'	29.872	42.921	-5.457	C.3	1	SAM1	0.000	
15	 O2'	28.818	43.467	-6.238	O.3	1	SAM1	0.000	
16	 C1'	30.233	41.554	-6.014	C.3	1	SAM1	0.000	
17	 OXT	37.408	46.313	-8.619	O.co2	1	SAM1	0.000	
18	  N1	27.992	37.067	-7.162	N.2	1	SAM1	0.000	
19	  C2	28.714	37.920	-7.899	C.2	1	SAM1	0.000	
20	  N3	29.261	39.084	-7.537	N.2	1	SAM1	0.000	
21	  C4	29.023	39.344	-6.239	C.2	1	SAM1	0.000	
22	  C5	28.311	38.553	-5.351	C.2	1	SAM1	0.000	
23	  C6	27.747	37.367	-5.864	C.2	1	SAM1	0.000	
24	  N6	26.951	36.555	-5.155	N.pl3	1	SAM1	0.000	
25	  N7	28.290	39.130	-4.089	N.2	1	SAM1	0.000	
26	  C8	28.967	40.241	-4.243	C.2	1	SAM1	0.000	
27	  N9	29.435	40.437	-5.519	N.2	1	SAM1	0.000	
28	  HA	36.505	43.869	-8.166	 H	1	SAM1	0.000	
29	 HB1	36.004	45.669	-6.432	 H	1	SAM1	0.000	
30	 HB2	37.201	44.863	-5.390	 H	1	SAM1	0.000	
31	 HG1	35.998	42.767	-5.486	 H	1	SAM1	0.000	
32	 HG2	34.927	43.373	-6.772	 H	1	SAM1	0.000	
33	 HE1	35.844	44.731	-2.979	 H	1	SAM1	0.000	
34	 HE2	35.707	42.967	-3.178	 H	1	SAM1	0.000	
35	 HE3	34.441	43.866	-2.307	 H	1	SAM1	0.000	
36	  H1	38.868	43.491	-6.417	 H	1	SAM1	0.000	
37	  H2	38.656	42.786	-7.894	 H	1	SAM1	0.000	
38	  H2	28.876	37.627	-8.926	 H	1	SAM1	0.000	
39	  H3	37.663	42.386	-6.639	 H	1	SAM1	0.000	
40	  H8	29.141	40.940	-3.438	 H	1	SAM1	0.000	
41	 H1'	30.061	41.569	-7.090	 H	1	SAM1	0.000	
42	 H2'	29.526	42.933	-4.424	 H	1	SAM1	0.000	
43	 H2'	28.657	44.360	-5.926	 H	1	SAM1	0.000	
44	 H3'	31.331	44.420	-4.851	 H	1	SAM1	0.000	
45	 H3'	30.525	45.103	-6.819	 H	1	SAM1	0.000	
46	 H4'	32.805	42.729	-6.675	 H	1	SAM1	0.000	
47	 H61	26.725	36.780	-4.197	 H	1	SAM1	0.000	
48	 H62	26.577	35.718	-5.579	 H	1	SAM1	0.000	
49	H5'1	32.728	42.632	-3.620	 H	1	SAM1	0.000	
50	H5'2	33.924	41.773	-4.619	 H	1	SAM1	0.000	
@<TRIPOS>BOND
1 1 2 1
2 1 36 1
3 1 37 1
4 1 39 1
5 2 3 1
6 2 5 1
7 2 28 1
8 3 4 ar
9 3 17 ar
10 5 6 1
11 5 29 1
12 5 30 1
13 6 7 1
14 6 31 1
15 6 32 1
16 7 8 1
17 7 9 1
18 8 33 1
19 8 34 1
20 8 35 1
21 9 10 1
22 9 49 1
23 9 50 1
24 10 11 1
25 10 12 1
26 10 46 1
27 11 16 1
28 12 13 1
29 12 14 1
30 12 44 1
31 13 45 1
32 14 15 1
33 14 16 1
34 14 42 1
35 15 43 1
36 16 27 1
37 16 41 1
38 18 19 ar
39 18 23 ar
40 19 20 ar
41 19 38 1
42 20 21 ar
43 21 22 ar
44 21 27 ar
45 22 23 ar
46 22 25 ar
47 23 24 1
48 24 47 1
49 24 48 1
50 25 26 ar
51 26 27 ar
52 26 40 1
@<TRIPOS>SUBSTRUCTURE
1	SAM1	1	GROUP	1 A	SAM
