@<TRIPOS>MOLECULE
5ARF.A
64 66 1 0 0 
SMALL
USER_CHARGES


@<TRIPOS>ATOM
  1 CAA     12.7100   -14.8210    -5.3810 C.3   1 I9H   0.3335 
  2 HAA     11.8591   -15.1056    -5.9999 H     1 I9H   0.0800 
  3 CAB     11.7660   -14.0750    -4.4690 C.3   1 I9H   0.2201 
  4 HAB     10.8308   -14.6335    -4.4282 H     1 I9H   0.0800 
  5 CAC     13.0390   -16.1560    -5.2620 C.ar  1 I9H  -0.1435 
  6 CAE     11.7240   -12.7080    -5.0450 C.3   1 I9H   0.1100 
  7 HAE1    12.1483   -11.9771    -4.3567 H     1 I9H   0.0800 
  8 HAE2    10.7043   -12.4185    -5.2991 H     1 I9H   0.0800 
  9 CAG     13.6670   -16.7510    -6.3190 C.ar  1 I9H  -0.1500 
 10 HAG     13.8935   -16.1502    -7.1874 H     1 I9H   0.1500 
 11 CAH     12.7270   -16.9370    -4.1470 C.ar  1 I9H  -0.1500 
 12 HAH     12.2033   -16.4896    -3.3152 H     1 I9H   0.1500 
 13 CAJ     13.4100   -13.4040    -2.7010 C.2   1 I9H   0.5690 
 14 CAK     11.1250   -14.1790    -1.9610 C.3   1 I9H   0.1401 
 15 HAK1    10.5389   -15.0396    -2.2835 H     1 I9H   0.0800 
 16 HAK2    11.6167   -14.4081    -1.0156 H     1 I9H   0.0800 
 17 CAL     14.0300   -18.0990    -6.3300 C.ar  1 I9H  -0.1500 
 18 HAL     14.5476   -18.5369    -7.1707 H     1 I9H   0.1500 
 19 CAM     13.0780   -18.2760    -4.0900 C.ar  1 I9H  -0.1500 
 20 HAM     12.8778   -18.8521    -3.1987 H     1 I9H   0.1500 
 21 CAN     12.9440   -11.8070    -7.0410 C.3   1 I9H   0.8291 
 22 HAN     12.4788   -11.0880    -7.7154 H     1 I9H   0.0800 
 23 CAO     13.7330   -13.0590    -1.2000 C.3   1 I9H   0.1810 
 24 HAO1    13.3256   -13.8517    -0.5725 H     1 I9H   0.0800 
 25 HAO2    13.2463   -12.1151    -0.9546 H     1 I9H   0.0800 
 26 CAQ     10.1660   -13.0120    -1.7270 C.3   1 I9H  -0.2400 
 27 HAQ1     9.6611   -12.7639    -2.6606 H     1 I9H   0.0800 
 28 HAQ2    10.7267   -12.1458    -1.3758 H     1 I9H   0.0800 
 29 HAQ3     9.4264   -13.2942    -0.9777 H     1 I9H   0.0800 
 30 CAR     13.6870   -18.8720    -5.1820 C.ar  1 I9H   0.1770 
 31 CAW     14.4340   -11.5250    -8.9220 C.ar  1 I9H   0.1000 
 32 CAX     12.8090    -9.4760    -7.6010 C.3   1 I9H   0.6130 
 33 HAX1    12.2430    -9.8198    -8.4668 H     1 I9H   0.0800 
 34 HAX2    13.8203    -9.8804    -7.6442 H     1 I9H   0.0800 
 35 CAY     15.7010   -11.0010    -8.9670 C.ar  1 I9H  -0.1500 
 36 HAY     16.3369   -11.0717    -8.0970 H     1 I9H   0.1500 
 37 CAZ     13.6100   -11.4130   -10.0690 C.ar  1 I9H  -0.1500 
 38 HAZ     12.6192   -11.8425   -10.0514 H     1 I9H   0.1500 
 39 NAD     13.0980   -13.9710    -6.3480 N.3   1 I9H  -0.6300 
 40 HAD     12.8575   -14.3686    -7.2447 H     1 I9H   0.3600 
 41 NAF     12.2020   -13.9230    -3.0040 N.am  1 I9H  -0.6602 
 42 NAI     12.5500   -12.8460    -6.2460 N.3   1 I9H  -0.5400 
 43 NAS     13.9890   -12.1730    -7.8240 N.pl3 1 I9H  -0.8691 
 44 HAS     14.4833   -13.0132    -7.5598 H     1 I9H   0.4000 
 45 NAT     12.3970   -10.5750    -6.8920 N.3   1 I9H  -0.9000 
 46 HAT     12.5151   -10.3359    -5.9178 H     1 I9H   0.3600 
 47 OAP     14.2620   -13.2510    -3.5820 O.2   1 I9H  -0.5700 
 48 OAU     15.1570   -12.9290    -0.9050 O.3   1 I9H  -0.6800 
 49 HAU     15.5763   -13.7643    -1.1242 H     1 I9H   0.4000 
 50 CBB     16.1860   -10.3710   -10.1330 C.ar  1 I9H   0.0825 
 51 CBC     14.0590   -10.7470   -11.2440 C.ar  1 I9H  -0.1500 
 52 HBC     13.4002   -10.6140   -12.0894 H     1 I9H   0.1500 
 53 CBD     15.3830   -10.2650   -11.2790 C.ar  1 I9H  -0.1500 
 54 HBD     15.7762    -9.8179   -12.1801 H     1 I9H   0.1500 
 55 CBF     17.7380    -8.7160   -10.9900 C.3   1 I9H   0.8800 
 56 HBF     16.9181    -8.0082   -11.1117 H     1 I9H   0.0800 
 57 NBA     13.1570    -8.5360    -8.1990 N.4   1 I9H  -0.8530 
 58 HBA1    12.3734    -7.9130    -8.3328 H     1 I9H   0.4500 
 59 HBA2    13.5163    -8.8230    -9.0982 H     1 I9H   0.4500 
 60 HBA3    13.8825    -8.0585    -7.6834 H     1 I9H   0.4500 
 61 OBE     17.4870    -9.8920   -10.1030 O.3   1 I9H  -0.3625 
 62 CL1     14.1900   -20.4920    -5.2150 Cl    1 I9H  -0.1770 
 63 F       18.0830    -9.3210   -12.0850 F     1 I9H  -0.3400 
 64 F       18.8100    -8.0390   -10.4680 F     1 I9H  -0.3400 
@<TRIPOS>BOND
  1   1   2  1   
  2   1   3  1   
  3   1   5  1   
  4   1  39  1   
  5   3   4  1   
  6   3   6  1   
  7   3  41  1   
  8   5   9  ar  
  9   5  11  ar  
 10   6   7  1   
 11   6   8  1   
 12   6  42  1   
 13   9  10  1   
 14   9  17  ar  
 15  11  12  1   
 16  11  19  ar  
 17  13  23  1   
 18  13  41  am  
 19  13  47  2   
 20  14  15  1   
 21  14  16  1   
 22  14  26  1   
 23  14  41  1   
 24  17  18  1   
 25  17  30  ar  
 26  19  20  1   
 27  19  30  ar  
 28  21  22  1   
 29  21  42  1   
 30  21  43  1   
 31  21  45  1   
 32  23  24  1   
 33  23  25  1   
 34  23  48  1   
 35  26  27  1   
 36  26  28  1   
 37  26  29  1   
 38  30  62  1   
 39  31  35  ar  
 40  31  37  ar  
 41  31  43  1   
 42  32  33  1   
 43  32  34  1   
 44  32  45  1   
 45  32  57  1   
 46  35  36  1   
 47  35  50  ar  
 48  37  38  1   
 49  37  51  ar  
 50  39  40  1   
 51  39  42  1   
 52  43  44  1   
 53  45  46  1   
 54  48  49  1   
 55  50  53  ar  
 56  50  61  1   
 57  51  52  1   
 58  51  53  ar  
 59  53  54  1   
 60  55  56  1   
 61  55  61  1   
 62  55  63  1   
 63  55  64  1   
 64  57  58  1   
 65  57  59  1   
 66  57  60  1   
@<TRIPOS>SUBSTRUCTURE
  1 I9H  39 GROUP 4 A **** 0

# MOE 2022.02 (io_trps.svl 2020.11)
