# created with PyMOL 2.5.0
@<TRIPOS>MOLECULE
5ARF
34 36 1                 
SMALL
USER_CHARGES
@<TRIPOS>ATOM
1	 CAA	12.710	-14.821	-5.381	C.3	1	I9H1001	0.000	
2	 CAB	11.766	-14.075	-4.469	C.3	1	I9H1001	0.000	
3	 CAC	13.039	-16.156	-5.262	C.2	1	I9H1001	0.000	
4	 CAE	11.724	-12.708	-5.045	C.3	1	I9H1001	0.000	
5	 CAG	13.667	-16.751	-6.319	C.2	1	I9H1001	0.000	
6	 CAH	12.727	-16.937	-4.147	C.2	1	I9H1001	0.000	
7	 CAJ	13.410	-13.404	-2.701	C.2	1	I9H1001	0.000	
8	 CAK	11.125	-14.179	-1.961	C.3	1	I9H1001	0.000	
9	 CAL	14.030	-18.099	-6.330	C.2	1	I9H1001	0.000	
10	 CAM	13.078	-18.276	-4.090	C.2	1	I9H1001	0.000	
11	 CAN	12.944	-11.807	-7.041	C.3	1	I9H1001	0.000	
12	 CAO	13.733	-13.059	-1.200	C.3	1	I9H1001	0.000	
13	 CAQ	10.166	-13.012	-1.727	C.3	1	I9H1001	0.000	
14	 CAR	13.687	-18.872	-5.182	C.2	1	I9H1001	0.000	
15	 CAW	14.434	-11.525	-8.922	C.2	1	I9H1001	0.000	
16	 CAX	12.809	-9.476	-7.601	C.3	1	I9H1001	0.000	
17	 CAY	15.701	-11.001	-8.967	C.2	1	I9H1001	0.000	
18	 CAZ	13.610	-11.413	-10.069	C.2	1	I9H1001	0.000	
19	 NAD	13.098	-13.971	-6.348	N.3	1	I9H1001	0.000	
20	 NAF	12.202	-13.923	-3.004	N.pl3	1	I9H1001	0.000	
21	 NAI	12.550	-12.846	-6.246	N.3	1	I9H1001	0.000	
22	 NAS	13.989	-12.173	-7.824	N.pl3	1	I9H1001	0.000	
23	 NAT	12.397	-10.575	-6.892	N.3	1	I9H1001	0.000	
24	 OAP	14.262	-13.251	-3.582	O.2	1	I9H1001	0.000	
25	 OAU	15.157	-12.929	-0.905	O.3	1	I9H1001	0.000	
26	 CBB	16.186	-10.371	-10.133	C.2	1	I9H1001	0.000	
27	 CBC	14.059	-10.747	-11.244	C.2	1	I9H1001	0.000	
28	 CBD	15.383	-10.265	-11.279	C.2	1	I9H1001	0.000	
29	 CBF	17.738	-8.716	-10.990	C.3	1	I9H1001	0.000	
30	 NBA	13.157	-8.536	-8.199	N.3	1	I9H1001	0.000	
31	 OBE	17.487	-9.892	-10.103	O.3	1	I9H1001	0.000	
32	 CL1	14.190	-20.492	-5.215	Cl	1	I9H1001	0.000	
33	 FBG	18.083	-9.321	-12.085	 F	1	I9H1001	0.000	
34	 FBH	18.810	-8.039	-10.468	 F	1	I9H1001	0.000	
@<TRIPOS>BOND
1 1 2 1
2 1 3 1
3 1 19 1
4 2 4 1
5 2 20 1
6 3 5 ar
7 3 6 ar
8 4 21 1
9 5 9 ar
10 6 10 ar
11 7 12 1
12 7 20 1
13 7 24 2
14 8 13 1
15 8 20 1
16 9 14 ar
17 10 14 ar
18 11 21 1
19 11 22 1
20 11 23 1
21 12 25 1
22 14 32 1
23 15 17 ar
24 15 18 ar
25 15 22 1
26 16 23 1
27 16 30 1
28 17 26 ar
29 18 27 ar
30 19 21 1
31 26 28 ar
32 26 31 1
33 27 28 ar
34 29 31 1
35 29 33 1
36 29 34 1
@<TRIPOS>SUBSTRUCTURE
1	I9H1001	1	GROUP	1 A	I9H
