@<TRIPOS>MOLECULE
5ARF.A
51 53 1 0 0 
SMALL
USER_CHARGES


@<TRIPOS>ATOM
  1 N       12.2240   -26.9760   -10.9430 N.4   1 SAM  -0.8530 
  2 H1      12.9105   -27.6996   -10.7839 H     1 SAM   0.4500 
  3 H2      11.5484   -27.2963   -11.6220 H     1 SAM   0.4500 
  4 H3      11.7536   -26.7615   -10.0753 H     1 SAM   0.4500 
  5 CA      12.8900   -25.7740   -11.4470 C.3   1 SAM   0.3170 
  6 HA      12.1724   -24.9739   -11.6284 H     1 SAM   0.0800 
  7 C       13.5600   -26.0940   -12.7460 C.2   1 SAM   0.9060 
  8 O       12.9720   -26.8810   -13.5360 O.co2 1 SAM  -0.9000 
  9 CB      13.9030   -25.2910   -10.3840 C.3   1 SAM  -0.1600 
 10 HB1     14.8162   -24.9304   -10.8575 H     1 SAM   0.0800 
 11 HB2     14.1468   -26.0956    -9.6902 H     1 SAM   0.0800 
 12 CG      13.1830   -24.1520    -9.6600 C.3   1 SAM  -0.1525 
 13 HG1     13.6813   -23.9480    -8.7123 H     1 SAM   0.0800 
 14 HG2     12.1471   -24.4346    -9.4724 H     1 SAM   0.0800 
 15 SD      13.2260   -22.7990   -10.6130 S.3   1 SAM   0.9775 
 16 CE      14.0610   -21.6350    -9.6640 C.3   1 SAM  -0.2325 
 17 HE1     15.0633   -22.0002    -9.4401 H     1 SAM   0.0800 
 18 HE2     13.5187   -21.4684    -8.7333 H     1 SAM   0.0800 
 19 HE3     14.1307   -20.6980   -10.2166 H     1 SAM   0.0800 
 20 C5'     11.8130   -21.9750   -10.7680 C.3   1 SAM  -0.1525 
 21 H5'1    11.9813   -21.0234   -11.2723 H     1 SAM   0.0800 
 22 H5'2    11.3692   -21.7939    -9.7890 H     1 SAM   0.0800 
 23 C4'     10.8600   -22.9120   -11.6480 C.3   1 SAM   0.2000 
 24 H4'     11.3977   -22.7889   -12.5881 H     1 SAM   0.0800 
 25 O4'     10.7670   -24.2940   -11.1680 O.3   1 SAM  -0.5600 
 26 C3'      9.4310   -22.5230   -11.8520 C.3   1 SAM   0.2000 
 27 H3'      8.9862   -22.1006   -10.9510 H     1 SAM   0.0800 
 28 O3'      9.1880   -21.3580   -12.7710 O.3   1 SAM  -0.6800 
 29 H3'      8.2401   -21.2108   -12.8086 H     1 SAM   0.4000 
 30 C2'      8.7640   -23.8710   -12.2720 C.3   1 SAM   0.2000 
 31 H2'      7.6836   -23.7264   -12.2715 H     1 SAM   0.0800 
 32 O2'      9.0680   -24.4470   -13.6700 O.3   1 SAM  -0.6800 
 33 H2'      8.7784   -23.8017   -14.3191 H     1 SAM   0.4000 
 34 C1'      9.4340   -24.8320   -11.3040 C.3   1 SAM   0.5691 
 35 H1'      9.4450   -25.8561   -11.6770 H     1 SAM   0.0800 
 36 OXT     14.6730   -25.5750   -12.9750 O.co2 1 SAM  -0.9000 
 37 N1       5.0160   -26.5580    -9.1110 N.2   1 SAM  -0.6610 
 38 C2       5.3740   -26.5420   -10.4110 C.2   1 SAM   0.6010 
 39 H2       4.6886   -26.9231   -11.1535 H     1 SAM   0.0600 
 40 N3       6.5550   -26.0660   -10.7970 N.2   1 SAM  -0.6610 
 41 C4       7.4640   -25.5570    -9.8960 C.2   1 SAM   0.5000 
 42 C5       7.1480   -25.5490    -8.4440 C.2   1 SAM   0.4500 
 43 C6       5.8140   -26.1190    -8.0790 C.2   1 SAM   0.6110 
 44 N6       5.3800   -26.1910    -6.7690 N.2   1 SAM  -0.2000 
 45 H62      4.4730   -26.5821    -6.5583 H     1 SAM   0.4000 
 46 H61      5.9698   -25.8525    -6.0223 H     1 SAM   0.4000 
 47 N7       8.2370   -25.0350    -7.7810 N.2   1 SAM  -0.6960 
 48 C8       9.1710   -24.7290    -8.7570 C.3   1 SAM   0.4551 
 49 H81     10.0787   -25.3037    -8.5726 H     1 SAM   0.0800 
 50 H82      9.3991   -23.6642    -8.7090 H     1 SAM   0.0800 
 51 N9       8.6970   -25.0300   -10.0140 N.pl3 1 SAM  -0.7882 
@<TRIPOS>BOND
  1   1   2  1   
  2   1   3  1   
  3   1   4  1   
  4   1   5  1   
  5   5   6  1   
  6   5   7  1   
  7   5   9  1   
  8   7   8  ar  
  9   7  36  ar  
 10   9  10  1   
 11   9  11  1   
 12   9  12  1   
 13  12  13  1   
 14  12  14  1   
 15  12  15  1   
 16  15  16  1   
 17  15  20  1   
 18  16  17  1   
 19  16  18  1   
 20  16  19  1   
 21  20  21  1   
 22  20  22  1   
 23  20  23  1   
 24  23  24  1   
 25  23  25  1   
 26  23  26  1   
 27  25  34  1   
 28  26  27  1   
 29  26  28  1   
 30  26  30  1   
 31  28  29  1   
 32  30  31  1   
 33  30  32  1   
 34  30  34  1   
 35  32  33  1   
 36  34  35  1   
 37  34  51  1   
 38  37  38  2   
 39  37  43  1   
 40  38  39  1   
 41  38  40  1   
 42  40  41  2   
 43  41  42  1   
 44  41  51  1   
 45  42  43  1   
 46  42  47  2   
 47  43  44  2   
 48  44  45  1   
 49  44  46  1   
 50  47  48  1   
 51  48  49  1   
 52  48  50  1   
 53  48  51  1   
@<TRIPOS>SUBSTRUCTURE
  1 SAM  34 GROUP 4 A **** 0

# MOE 2022.02 (io_trps.svl 2020.11)
