# created with PyMOL 2.4.0
@<TRIPOS>MOLECULE
temp
50 52 1                 
SMALL
USER_CHARGES
@<TRIPOS>ATOM
1	   N	12.224	-26.976	-10.943	N.4	1	SAM1	0.000	
2	  CA	12.890	-25.774	-11.447	C.3	1	SAM1	0.000	
3	   C	13.560	-26.094	-12.746	C.2	1	SAM1	0.000	
4	   O	12.972	-26.881	-13.536	O.co2	1	SAM1	0.000	
5	  CB	13.903	-25.291	-10.384	C.3	1	SAM1	0.000	
6	  CG	13.183	-24.152	-9.660	C.3	1	SAM1	0.000	
7	  SD	13.226	-22.799	-10.613	S.3	1	SAM1	0.000	
8	  CE	14.061	-21.635	-9.664	C.3	1	SAM1	0.000	
9	 C5'	11.813	-21.975	-10.768	C.3	1	SAM1	0.000	
10	 C4'	10.860	-22.912	-11.648	C.3	1	SAM1	0.000	
11	 O4'	10.767	-24.294	-11.168	O.3	1	SAM1	0.000	
12	 C3'	9.431	-22.523	-11.852	C.3	1	SAM1	0.000	
13	 O3'	9.188	-21.358	-12.771	O.3	1	SAM1	0.000	
14	 C2'	8.764	-23.871	-12.272	C.3	1	SAM1	0.000	
15	 O2'	9.068	-24.447	-13.670	O.3	1	SAM1	0.000	
16	 C1'	9.434	-24.832	-11.304	C.3	1	SAM1	0.000	
17	 OXT	14.673	-25.575	-12.975	O.co2	1	SAM1	0.000	
18	  N1	5.016	-26.558	-9.111	N.2	1	SAM1	0.000	
19	  C2	5.374	-26.542	-10.411	C.2	1	SAM1	0.000	
20	  N3	6.555	-26.066	-10.797	N.2	1	SAM1	0.000	
21	  C4	7.464	-25.557	-9.896	C.2	1	SAM1	0.000	
22	  C5	7.148	-25.549	-8.444	C.2	1	SAM1	0.000	
23	  C6	5.814	-26.119	-8.079	C.2	1	SAM1	0.000	
24	  N6	5.380	-26.191	-6.769	N.pl3	1	SAM1	0.000	
25	  N7	8.237	-25.035	-7.781	N.2	1	SAM1	0.000	
26	  C8	9.171	-24.729	-8.757	C.2	1	SAM1	0.000	
27	  N9	8.697	-25.030	-10.014	N.2	1	SAM1	0.000	
28	  HA	12.172	-24.974	-11.628	 H	1	SAM1	0.000	
29	 HB1	14.816	-24.930	-10.858	 H	1	SAM1	0.000	
30	 HB2	14.147	-26.096	-9.690	 H	1	SAM1	0.000	
31	 HG1	13.681	-23.948	-8.712	 H	1	SAM1	0.000	
32	 HG2	12.147	-24.435	-9.472	 H	1	SAM1	0.000	
33	 HE1	15.063	-22.000	-9.440	 H	1	SAM1	0.000	
34	 HE2	13.519	-21.468	-8.733	 H	1	SAM1	0.000	
35	 HE3	14.131	-20.698	-10.217	 H	1	SAM1	0.000	
36	  H1	12.910	-27.700	-10.784	 H	1	SAM1	0.000	
37	  H2	11.548	-27.296	-11.622	 H	1	SAM1	0.000	
38	  H2	4.689	-26.923	-11.153	 H	1	SAM1	0.000	
39	  H3	11.754	-26.761	-10.075	 H	1	SAM1	0.000	
40	  H8	10.146	-24.308	-8.558	 H	1	SAM1	0.000	
41	 H1'	9.445	-25.856	-11.677	 H	1	SAM1	0.000	
42	 H2'	7.684	-23.726	-12.271	 H	1	SAM1	0.000	
43	 H2'	8.778	-23.802	-14.319	 H	1	SAM1	0.000	
44	 H3'	8.986	-22.101	-10.951	 H	1	SAM1	0.000	
45	 H3'	8.240	-21.211	-12.809	 H	1	SAM1	0.000	
46	 H4'	11.398	-22.789	-12.588	 H	1	SAM1	0.000	
47	 H61	5.970	-25.853	-6.022	 H	1	SAM1	0.000	
48	 H62	4.473	-26.582	-6.558	 H	1	SAM1	0.000	
49	H5'1	11.981	-21.023	-11.272	 H	1	SAM1	0.000	
50	H5'2	11.369	-21.794	-9.789	 H	1	SAM1	0.000	
@<TRIPOS>BOND
1 1 2 1
2 1 36 1
3 1 37 1
4 1 39 1
5 2 3 1
6 2 5 1
7 2 28 1
8 3 4 ar
9 3 17 ar
10 5 6 1
11 5 29 1
12 5 30 1
13 6 7 1
14 6 31 1
15 6 32 1
16 7 8 1
17 7 9 1
18 8 33 1
19 8 34 1
20 8 35 1
21 9 10 1
22 9 49 1
23 9 50 1
24 10 11 1
25 10 12 1
26 10 46 1
27 11 16 1
28 12 13 1
29 12 14 1
30 12 44 1
31 13 45 1
32 14 15 1
33 14 16 1
34 14 42 1
35 15 43 1
36 16 27 1
37 16 41 1
38 18 19 ar
39 18 23 ar
40 19 20 ar
41 19 38 1
42 20 21 ar
43 21 22 ar
44 21 27 ar
45 22 23 ar
46 22 25 ar
47 23 24 1
48 24 47 1
49 24 48 1
50 25 26 ar
51 26 27 ar
52 26 40 1
@<TRIPOS>SUBSTRUCTURE
1	SAM1	1	GROUP	1 A	SAM
