# created with PyMOL 2.5.0
@<TRIPOS>MOLECULE
5ARF
27 29 1                 
SMALL
USER_CHARGES
@<TRIPOS>ATOM
1	   N	12.224	-26.976	-10.943	N.3	1	SAM1002	0.000	
2	  CA	12.890	-25.774	-11.447	C.3	1	SAM1002	0.000	
3	   C	13.560	-26.094	-12.746	C.2	1	SAM1002	0.000	
4	   O	12.972	-26.881	-13.536	O.co2	1	SAM1002	0.000	
5	  CB	13.903	-25.291	-10.384	C.3	1	SAM1002	0.000	
6	  CG	13.183	-24.152	-9.660	C.3	1	SAM1002	0.000	
7	  SD	13.226	-22.799	-10.613	S.3	1	SAM1002	0.000	
8	  CE	14.061	-21.635	-9.664	C.3	1	SAM1002	0.000	
9	 C5'	11.813	-21.975	-10.768	C.3	1	SAM1002	0.000	
10	 C4'	10.860	-22.912	-11.648	C.3	1	SAM1002	0.000	
11	 O4'	10.767	-24.294	-11.168	O.3	1	SAM1002	0.000	
12	 C3'	9.431	-22.523	-11.852	C.3	1	SAM1002	0.000	
13	 O3'	9.188	-21.358	-12.771	O.3	1	SAM1002	0.000	
14	 C2'	8.764	-23.871	-12.272	C.3	1	SAM1002	0.000	
15	 O2'	9.068	-24.447	-13.670	O.3	1	SAM1002	0.000	
16	 C1'	9.434	-24.832	-11.304	C.3	1	SAM1002	0.000	
17	 OXT	14.673	-25.575	-12.975	O.co2	1	SAM1002	0.000	
18	  N1	5.016	-26.558	-9.111	N.2	1	SAM1002	0.000	
19	  C2	5.374	-26.542	-10.411	C.2	1	SAM1002	0.000	
20	  N3	6.555	-26.066	-10.797	N.2	1	SAM1002	0.000	
21	  C4	7.464	-25.557	-9.896	C.2	1	SAM1002	0.000	
22	  C5	7.148	-25.549	-8.444	C.2	1	SAM1002	0.000	
23	  C6	5.814	-26.119	-8.079	C.2	1	SAM1002	0.000	
24	  N6	5.380	-26.191	-6.769	N.pl3	1	SAM1002	0.000	
25	  N7	8.237	-25.035	-7.781	N.2	1	SAM1002	0.000	
26	  C8	9.171	-24.729	-8.757	C.2	1	SAM1002	0.000	
27	  N9	8.697	-25.030	-10.014	N.2	1	SAM1002	0.000	
@<TRIPOS>BOND
1 1 2 1
2 2 3 1
3 2 5 1
4 3 4 ar
5 3 17 ar
6 5 6 1
7 6 7 1
8 7 8 1
9 7 9 1
10 9 10 1
11 10 11 1
12 10 12 1
13 11 16 1
14 12 13 1
15 12 14 1
16 14 15 1
17 14 16 1
18 16 27 1
19 18 19 ar
20 18 23 ar
21 19 20 ar
22 20 21 ar
23 21 22 ar
24 21 27 ar
25 22 23 ar
26 22 25 ar
27 23 24 1
28 25 26 ar
29 26 27 ar
@<TRIPOS>SUBSTRUCTURE
1	SAM1002	1	GROUP	1 A	SAM
