@<TRIPOS>MOLECULE
4N49.A
48 50 1 0 0 
SMALL
USER_CHARGES


@<TRIPOS>ATOM
  1 CM7     18.5350    28.2410    32.5350 C.3   1 MGT   0.1061 
  2 HM71    18.6833    27.2126    32.2056 H     1 MGT   0.0800 
  3 HM72    19.1856    28.4477    33.3847 H     1 MGT   0.0800 
  4 HM73    18.7758    28.9222    31.7189 H     1 MGT   0.0800 
  5 PA      16.1550    23.6390    32.1460 P.3   1 MGT   1.4424 
  6 PB      14.6090    22.3300    30.1260 P.3   1 MGT   1.4424 
  7 PG      16.0550    22.2260    27.6870 P.3   1 MGT   1.3712 
  8 C5'     14.4970    24.1180    34.0750 C.3   1 MGT   0.1200 
  9 H5'1    14.8173    23.8528    35.0826 H     1 MGT   0.0800 
 10 H5'2    14.0910    23.2364    33.5789 H     1 MGT   0.0800 
 11 O5'     15.6240    24.5220    33.3650 O.3   1 MGT  -0.5512 
 12 C4'     13.4330    25.0840    34.1930 C.3   1 MGT   0.2000 
 13 H4'     12.7683    24.6996    34.9667 H     1 MGT   0.0800 
 14 O4'     13.9440    26.4000    34.5370 O.3   1 MGT  -0.5600 
 15 C3'     12.7370    25.2620    32.9080 C.3   1 MGT   0.2000 
 16 H3'     12.7660    24.3878    32.2576 H     1 MGT   0.0800 
 17 O3'     11.3610    25.5130    33.1470 O.3   1 MGT  -0.6800 
 18 H3'     10.9444    25.6783    32.2981 H     1 MGT   0.4000 
 19 C2'     13.4250    26.3980    32.2880 C.3   1 MGT   0.2000 
 20 H2'     14.2924    26.0813    31.7088 H     1 MGT   0.0800 
 21 O2'     12.6090    27.0980    31.3650 O.3   1 MGT  -0.6800 
 22 H2'     12.3784    26.4879    30.6605 H     1 MGT   0.4000 
 23 C1'     13.7450    27.2660    33.4510 C.3   1 MGT   0.5691 
 24 H1'     12.9412    27.9930    33.5668 H     1 MGT   0.0800 
 25 N1      16.0470    31.7700    34.1720 N.2   1 MGT  -0.6610 
 26 O1A     16.8350    22.3660    32.6470 O.co2 1 MGT  -0.9500 
 27 O1B     13.4440    22.8070    29.3210 O.co2 1 MGT  -0.9500 
 28 O1G     16.1560    23.6340    26.9480 O.co2 1 MGT  -1.0333 
 29 C2      14.7520    31.4190    34.3700 C.2   1 MGT   0.7110 
 30 N2      13.7720    32.3880    34.8780 N.pl3 1 MGT  -0.8500 
 31 H21     12.8139    32.1058    35.0282 H     1 MGT   0.4000 
 32 H22     14.0562    33.3365    35.0772 H     1 MGT   0.4000 
 33 O2A     17.1350    24.3940    31.3260 O.co2 1 MGT  -0.9500 
 34 O2B     14.4380    20.9740    30.6960 O.co2 1 MGT  -0.9500 
 35 O2G     17.3140    21.4670    27.5060 O.co2 1 MGT  -1.0333 
 36 N3      14.3350    30.1700    34.1180 N.2   1 MGT  -0.6610 
 37 O3A     14.7840    23.3360    31.3630 O.3   1 MGT  -0.5424 
 38 O3B     15.9050    22.4340    29.2640 O.3   1 MGT  -0.5424 
 39 O3G     15.5450    21.3090    27.3910 O.co2 1 MGT  -1.0333 
 40 C4      15.2070    29.2540    33.6370 C.2   1 MGT   0.5000 
 41 C5      16.5640    29.5650    33.3970 C.2   1 MGT   0.4000 
 42 C6      16.9740    30.8880    33.6950 C.2   1 MGT   0.7810 
 43 O6      18.2930    31.3290    33.5130 O.2   1 MGT  -0.5700 
 44 N7      17.1360    28.4300    32.9330 N.2   1 MGT  -0.0922 
 45 C8      16.1850    27.4550    32.8850 C.3   1 MGT   0.5552 
 46 H81     16.4729    26.6308    33.5376 H     1 MGT   0.0800 
 47 H82     16.0856    27.0911    31.8624 H     1 MGT   0.0800 
 48 N9      15.0160    27.9670    33.2960 N.pl3 1 MGT  -0.7882 
@<TRIPOS>BOND
  1   1   2  1   
  2   1   3  1   
  3   1   4  1   
  4   1  44  1   
  5   5  11  1   
  6   5  26  ar  
  7   5  33  ar  
  8   5  37  1   
  9   6  27  ar  
 10   6  34  ar  
 11   6  37  1   
 12   6  38  1   
 13   7  28  ar  
 14   7  35  ar  
 15   7  38  1   
 16   7  39  ar  
 17   8   9  1   
 18   8  10  1   
 19   8  11  1   
 20   8  12  1   
 21  12  13  1   
 22  12  14  1   
 23  12  15  1   
 24  14  23  1   
 25  15  16  1   
 26  15  17  1   
 27  15  19  1   
 28  17  18  1   
 29  19  20  1   
 30  19  21  1   
 31  19  23  1   
 32  21  22  1   
 33  23  24  1   
 34  23  48  1   
 35  25  29  2   
 36  25  42  1   
 37  29  30  1   
 38  29  36  1   
 39  30  31  1   
 40  30  32  1   
 41  36  40  2   
 42  40  41  1   
 43  40  48  1   
 44  41  42  1   
 45  41  44  2   
 46  42  43  2   
 47  44  45  1   
 48  45  46  1   
 49  45  47  1   
 50  45  48  1   
@<TRIPOS>SUBSTRUCTURE
  1 MGT  45 GROUP 4 A **** 0

# MOE 2022.02 (io_trps.svl 2020.11)
