# created with PyMOL 2.5.2
@<TRIPOS>MOLECULE
4N49
33 35 1                 
SMALL
USER_CHARGES
@<TRIPOS>ATOM
1	 CM7	18.535	28.241	32.535	C.3	1	MGT602	0.000	
2	  PA	16.155	23.639	32.146	P.3	1	MGT602	0.000	
3	  PB	14.609	22.330	30.126	P.3	1	MGT602	0.000	
4	  PG	16.055	22.226	27.687	P.3	1	MGT602	0.000	
5	 C5'	14.497	24.118	34.075	C.3	1	MGT602	0.000	
6	 O5'	15.624	24.522	33.365	O.3	1	MGT602	0.000	
7	 C4'	13.433	25.084	34.193	C.3	1	MGT602	0.000	
8	 O4'	13.944	26.400	34.537	O.3	1	MGT602	0.000	
9	 C3'	12.737	25.262	32.908	C.3	1	MGT602	0.000	
10	 O3'	11.361	25.513	33.147	O.3	1	MGT602	0.000	
11	 C2'	13.425	26.398	32.288	C.3	1	MGT602	0.000	
12	 O2'	12.609	27.098	31.365	O.3	1	MGT602	0.000	
13	 C1'	13.745	27.266	33.451	C.3	1	MGT602	0.000	
14	  N1	16.047	31.770	34.172	N.2	1	MGT602	0.000	
15	 O1A	16.835	22.366	32.647	O.co2	1	MGT602	0.000	
16	 O1B	13.444	22.807	29.321	O.co2	1	MGT602	0.000	
17	 O1G	16.156	23.634	26.948	O.co2	1	MGT602	0.000	
18	  C2	14.752	31.419	34.370	C.2	1	MGT602	0.000	
19	  N2	13.772	32.388	34.878	N.pl3	1	MGT602	0.000	
20	 O2A	17.135	24.394	31.326	O.co2	1	MGT602	0.000	
21	 O2B	14.438	20.974	30.696	O.co2	1	MGT602	0.000	
22	 O2G	17.314	21.467	27.506	O.co2	1	MGT602	0.000	
23	  N3	14.335	30.170	34.118	N.2	1	MGT602	0.000	
24	 O3A	14.784	23.336	31.363	O.3	1	MGT602	0.000	
25	 O3B	15.905	22.434	29.264	O.3	1	MGT602	0.000	
26	 O3G	15.545	21.309	27.391	O.co2	1	MGT602	0.000	
27	  C4	15.207	29.254	33.637	C.2	1	MGT602	0.000	
28	  C5	16.564	29.565	33.397	C.2	1	MGT602	0.000	
29	  C6	16.974	30.888	33.695	C.2	1	MGT602	0.000	
30	  O6	18.293	31.329	33.513	O.3	1	MGT602	0.000	
31	  N7	17.136	28.430	32.933	N.2	1	MGT602	0.000	
32	  C8	16.185	27.455	32.885	C.2	1	MGT602	0.000	
33	  N9	15.016	27.967	33.296	N.2	1	MGT602	0.000	
@<TRIPOS>BOND
1 1 31 1
2 2 6 1
3 2 15 1
4 2 20 2
5 2 24 1
6 3 16 1
7 3 21 2
8 3 24 1
9 3 25 1
10 4 17 1
11 4 22 1
12 4 25 1
13 5 6 1
14 5 7 1
15 7 8 1
16 7 9 1
17 8 13 1
18 9 10 1
19 9 11 1
20 11 12 1
21 11 13 1
22 13 33 1
23 14 18 ar
24 14 29 ar
25 18 19 1
26 18 23 ar
27 23 27 ar
28 27 28 ar
29 27 33 ar
30 28 29 ar
31 28 31 ar
32 29 30 1
33 31 32 ar
34 32 33 ar
35 4 26 2
@<TRIPOS>SUBSTRUCTURE
1	MGT602	1	GROUP	1 A	MGT
