# created with PyMOL 2.4.0
@<TRIPOS>MOLECULE
temp
50 52 1                 
SMALL
USER_CHARGES
@<TRIPOS>ATOM
1	   N	8.941	14.914	19.305	N.4	1	SAM1	0.000	
2	  CA	10.099	15.271	18.458	C.3	1	SAM1	0.000	
3	   C	11.078	14.171	18.417	C.2	1	SAM1	0.000	
4	   O	10.861	13.145	19.120	O.co2	1	SAM1	0.000	
5	  CB	10.796	16.457	19.022	C.3	1	SAM1	0.000	
6	  CG	10.096	17.754	18.752	C.3	1	SAM1	0.000	
7	  SD	10.844	19.334	19.286	S.3	1	SAM1	0.000	
8	  CE	10.867	19.419	21.008	C.3	1	SAM1	0.000	
9	 C5'	9.794	20.628	18.690	C.3	1	SAM1	0.000	
10	 C4'	9.567	20.642	17.207	C.3	1	SAM1	0.000	
11	 O4'	8.435	21.478	16.921	O.3	1	SAM1	0.000	
12	 C3'	10.733	21.198	16.518	C.3	1	SAM1	0.000	
13	 O3'	11.100	20.353	15.457	O.3	1	SAM1	0.000	
14	 C2'	10.240	22.527	16.065	C.3	1	SAM1	0.000	
15	 O2'	10.917	22.987	14.952	O.3	1	SAM1	0.000	
16	 C1'	8.815	22.284	15.808	C.3	1	SAM1	0.000	
17	 OXT	12.086	14.231	17.743	O.co2	1	SAM1	0.000	
18	  N1	5.183	24.612	12.937	N.2	1	SAM1	0.000	
19	  C2	5.664	23.344	12.795	C.2	1	SAM1	0.000	
20	  N3	6.627	22.882	13.636	N.2	1	SAM1	0.000	
21	  C4	7.105	23.654	14.652	C.2	1	SAM1	0.000	
22	  C5	6.571	24.950	14.837	C.2	1	SAM1	0.000	
23	  C6	5.593	25.422	13.915	C.2	1	SAM1	0.000	
24	  N6	5.009	26.759	14.050	N.pl3	1	SAM1	0.000	
25	  N7	7.219	25.495	15.897	N.2	1	SAM1	0.000	
26	  C8	8.084	24.584	16.366	C.2	1	SAM1	0.000	
27	  N9	8.036	23.447	15.629	N.2	1	SAM1	0.000	
28	  HA	9.720	15.477	17.457	 H	1	SAM1	0.000	
29	 HB1	11.794	16.508	18.587	 H	1	SAM1	0.000	
30	 HB2	10.876	16.328	20.101	 H	1	SAM1	0.000	
31	 HG1	9.121	17.690	19.235	 H	1	SAM1	0.000	
32	 HG2	9.963	17.819	17.672	 H	1	SAM1	0.000	
33	 HE1	11.508	18.631	21.402	 H	1	SAM1	0.000	
34	 HE2	9.855	19.290	21.392	 H	1	SAM1	0.000	
35	 HE3	11.252	20.390	21.319	 H	1	SAM1	0.000	
36	  H1	9.258	14.716	20.243	 H	1	SAM1	0.000	
37	  H2	8.485	14.097	18.925	 H	1	SAM1	0.000	
38	  H2	5.279	22.706	12.013	 H	1	SAM1	0.000	
39	  H3	8.289	15.685	19.326	 H	1	SAM1	0.000	
40	  H8	8.732	24.736	17.217	 H	1	SAM1	0.000	
41	 H1'	8.639	21.794	14.850	 H	1	SAM1	0.000	
42	 H2'	10.402	23.316	16.800	 H	1	SAM1	0.000	
43	 H2'	11.839	23.093	15.196	 H	1	SAM1	0.000	
44	 H3'	11.631	21.289	17.128	 H	1	SAM1	0.000	
45	 H3'	11.822	20.775	14.986	 H	1	SAM1	0.000	
46	 H4'	9.396	19.621	16.865	 H	1	SAM1	0.000	
47	 H61	5.299	27.363	14.806	 H	1	SAM1	0.000	
48	 H62	4.317	27.077	13.387	 H	1	SAM1	0.000	
49	H5'1	10.243	21.581	18.970	 H	1	SAM1	0.000	
50	H5'2	8.825	20.525	19.177	 H	1	SAM1	0.000	
@<TRIPOS>BOND
1 1 2 1
2 1 36 1
3 1 37 1
4 1 39 1
5 2 3 1
6 2 5 1
7 2 28 1
8 3 4 ar
9 3 17 ar
10 5 6 1
11 5 29 1
12 5 30 1
13 6 7 1
14 6 31 1
15 6 32 1
16 7 8 1
17 7 9 1
18 8 33 1
19 8 34 1
20 8 35 1
21 9 10 1
22 9 49 1
23 9 50 1
24 10 11 1
25 10 12 1
26 10 46 1
27 11 16 1
28 12 13 1
29 12 14 1
30 12 44 1
31 13 45 1
32 14 15 1
33 14 16 1
34 14 42 1
35 15 43 1
36 16 27 1
37 16 41 1
38 18 19 ar
39 18 23 ar
40 19 20 ar
41 19 38 1
42 20 21 ar
43 21 22 ar
44 21 27 ar
45 22 23 ar
46 22 25 ar
47 23 24 1
48 24 47 1
49 24 48 1
50 25 26 ar
51 26 27 ar
52 26 40 1
@<TRIPOS>SUBSTRUCTURE
1	SAM1	1	GROUP	1 A	SAM
