@<TRIPOS>MOLECULE
4N49.A
51 53 1 0 0 
SMALL
USER_CHARGES


@<TRIPOS>ATOM
  1 N        8.9410    14.9140    19.3050 N.4   1 SAM  -0.8530 
  2 H1       9.2584    14.7160    20.2432 H     1 SAM   0.4500 
  3 H2       8.4847    14.0972    18.9246 H     1 SAM   0.4500 
  4 H3       8.2888    15.6849    19.3259 H     1 SAM   0.4500 
  5 CA      10.0990    15.2710    18.4580 C.3   1 SAM   0.3170 
  6 HA       9.7199    15.4772    17.4571 H     1 SAM   0.0800 
  7 C       11.0780    14.1710    18.4170 C.2   1 SAM   0.9060 
  8 O       10.8610    13.1450    19.1200 O.co2 1 SAM  -0.9000 
  9 CB      10.7960    16.4570    19.0220 C.3   1 SAM  -0.1600 
 10 HB1     11.7942    16.5081    18.5872 H     1 SAM   0.0800 
 11 HB2     10.8760    16.3277    20.1013 H     1 SAM   0.0800 
 12 CG      10.0960    17.7540    18.7520 C.3   1 SAM  -0.1525 
 13 HG1      9.1208    17.6901    19.2348 H     1 SAM   0.0800 
 14 HG2      9.9632    17.8194    17.6721 H     1 SAM   0.0800 
 15 SD      10.8440    19.3340    19.2860 S.3   1 SAM   0.9775 
 16 CE      10.8670    19.4190    21.0080 C.3   1 SAM  -0.2325 
 17 HE1     11.5083    18.6307    21.4021 H     1 SAM   0.0800 
 18 HE2      9.8550    19.2899    21.3917 H     1 SAM   0.0800 
 19 HE3     11.2523    20.3901    21.3187 H     1 SAM   0.0800 
 20 C5'      9.7940    20.6280    18.6900 C.3   1 SAM  -0.1525 
 21 H5'1    10.2427    21.5810    18.9704 H     1 SAM   0.0800 
 22 H5'2     8.8245    20.5255    19.1775 H     1 SAM   0.0800 
 23 C4'      9.5670    20.6420    17.2070 C.3   1 SAM   0.2000 
 24 H4'      9.3961    19.6211    16.8655 H     1 SAM   0.0800 
 25 O4'      8.4350    21.4780    16.9210 O.3   1 SAM  -0.5600 
 26 C3'     10.7330    21.1980    16.5180 C.3   1 SAM   0.2000 
 27 H3'     11.6314    21.2893    17.1285 H     1 SAM   0.0800 
 28 O3'     11.1000    20.3530    15.4570 O.3   1 SAM  -0.6800 
 29 H3'     11.8224    20.7751    14.9863 H     1 SAM   0.4000 
 30 C2'     10.2400    22.5270    16.0650 C.3   1 SAM   0.2000 
 31 H2'     10.4022    23.3155    16.7999 H     1 SAM   0.0800 
 32 O2'     10.9170    22.9870    14.9520 O.3   1 SAM  -0.6800 
 33 H2'     10.8137    22.3318    14.2580 H     1 SAM   0.4000 
 34 C1'      8.8150    22.2840    15.8080 C.3   1 SAM   0.5691 
 35 H1'      8.6394    21.7938    14.8504 H     1 SAM   0.0800 
 36 OXT     12.0860    14.2310    17.7430 O.co2 1 SAM  -0.9000 
 37 N1       5.1830    24.6120    12.9370 N.2   1 SAM  -0.6610 
 38 C2       5.6640    23.3440    12.7950 C.2   1 SAM   0.6010 
 39 H2       5.2794    22.7058    12.0132 H     1 SAM   0.0600 
 40 N3       6.6270    22.8820    13.6360 N.2   1 SAM  -0.6610 
 41 C4       7.1050    23.6540    14.6520 C.2   1 SAM   0.5000 
 42 C5       6.5710    24.9500    14.8370 C.2   1 SAM   0.4500 
 43 C6       5.5930    25.4220    13.9150 C.2   1 SAM   0.6110 
 44 N6       5.0090    26.7590    14.0500 N.2   1 SAM  -0.2000 
 45 H62      4.3167    27.0770    13.3869 H     1 SAM   0.4000 
 46 H61      5.2987    27.3626    14.8062 H     1 SAM   0.4000 
 47 N7       7.2190    25.4950    15.8970 N.2   1 SAM  -0.6960 
 48 C8       8.0840    24.5840    16.3660 C.3   1 SAM   0.4551 
 49 H81      7.8303    24.3501    17.3999 H     1 SAM   0.0800 
 50 H82      9.0928    24.9946    16.3234 H     1 SAM   0.0800 
 51 N9       8.0360    23.4470    15.6290 N.pl3 1 SAM  -0.7882 
@<TRIPOS>BOND
  1   1   2  1   
  2   1   3  1   
  3   1   4  1   
  4   1   5  1   
  5   5   6  1   
  6   5   7  1   
  7   5   9  1   
  8   7   8  ar  
  9   7  36  ar  
 10   9  10  1   
 11   9  11  1   
 12   9  12  1   
 13  12  13  1   
 14  12  14  1   
 15  12  15  1   
 16  15  16  1   
 17  15  20  1   
 18  16  17  1   
 19  16  18  1   
 20  16  19  1   
 21  20  21  1   
 22  20  22  1   
 23  20  23  1   
 24  23  24  1   
 25  23  25  1   
 26  23  26  1   
 27  25  34  1   
 28  26  27  1   
 29  26  28  1   
 30  26  30  1   
 31  28  29  1   
 32  30  31  1   
 33  30  32  1   
 34  30  34  1   
 35  32  33  1   
 36  34  35  1   
 37  34  51  1   
 38  37  38  2   
 39  37  43  1   
 40  38  39  1   
 41  38  40  1   
 42  40  41  2   
 43  41  42  1   
 44  41  51  1   
 45  42  43  1   
 46  42  47  2   
 47  43  44  2   
 48  44  45  1   
 49  44  46  1   
 50  47  48  1   
 51  48  49  1   
 52  48  50  1   
 53  48  51  1   
@<TRIPOS>SUBSTRUCTURE
  1 SAM  25 GROUP 4 A **** 0

# MOE 2022.02 (io_trps.svl 2020.11)
