# created with PyMOL 2.5.0
@<TRIPOS>MOLECULE
4N49
27 29 1                 
SMALL
USER_CHARGES
@<TRIPOS>ATOM
1	   N	8.941	14.914	19.305	N.3	1	SAM601	0.000	
2	  CA	10.099	15.271	18.458	C.3	1	SAM601	0.000	
3	   C	11.078	14.171	18.417	C.2	1	SAM601	0.000	
4	   O	10.861	13.145	19.120	O.co2	1	SAM601	0.000	
5	  CB	10.796	16.457	19.022	C.3	1	SAM601	0.000	
6	  CG	10.096	17.754	18.752	C.3	1	SAM601	0.000	
7	  SD	10.844	19.334	19.286	S.3	1	SAM601	0.000	
8	  CE	10.867	19.419	21.008	C.3	1	SAM601	0.000	
9	 C5'	9.794	20.628	18.690	C.3	1	SAM601	0.000	
10	 C4'	9.567	20.642	17.207	C.3	1	SAM601	0.000	
11	 O4'	8.435	21.478	16.921	O.3	1	SAM601	0.000	
12	 C3'	10.733	21.198	16.518	C.3	1	SAM601	0.000	
13	 O3'	11.100	20.353	15.457	O.3	1	SAM601	0.000	
14	 C2'	10.240	22.527	16.065	C.3	1	SAM601	0.000	
15	 O2'	10.917	22.987	14.952	O.3	1	SAM601	0.000	
16	 C1'	8.815	22.284	15.808	C.3	1	SAM601	0.000	
17	 OXT	12.086	14.231	17.743	O.co2	1	SAM601	0.000	
18	  N1	5.183	24.612	12.937	N.2	1	SAM601	0.000	
19	  C2	5.664	23.344	12.795	C.2	1	SAM601	0.000	
20	  N3	6.627	22.882	13.636	N.2	1	SAM601	0.000	
21	  C4	7.105	23.654	14.652	C.2	1	SAM601	0.000	
22	  C5	6.571	24.950	14.837	C.2	1	SAM601	0.000	
23	  C6	5.593	25.422	13.915	C.2	1	SAM601	0.000	
24	  N6	5.009	26.759	14.050	N.pl3	1	SAM601	0.000	
25	  N7	7.219	25.495	15.897	N.2	1	SAM601	0.000	
26	  C8	8.084	24.584	16.366	C.2	1	SAM601	0.000	
27	  N9	8.036	23.447	15.629	N.2	1	SAM601	0.000	
@<TRIPOS>BOND
1 1 2 1
2 2 3 1
3 2 5 1
4 3 4 ar
5 3 17 ar
6 5 6 1
7 6 7 1
8 7 8 1
9 7 9 1
10 9 10 1
11 10 11 1
12 10 12 1
13 11 16 1
14 12 13 1
15 12 14 1
16 14 15 1
17 14 16 1
18 16 27 1
19 18 19 ar
20 18 23 ar
21 19 20 ar
22 20 21 ar
23 21 22 ar
24 21 27 ar
25 22 23 ar
26 22 25 ar
27 23 24 1
28 25 26 ar
29 26 27 ar
@<TRIPOS>SUBSTRUCTURE
1	SAM601	1	GROUP	1 A	SAM
